
     RDKit          2D

 30 34  0  0  0  0  0  0  0  0999 V2000
    0.8000    0.4958    0.0000 C   0  0  0  0  0  0  0  0  0  0  0  0
    0.0792    0.0750    0.0000 C   0  0  0  0  0  0  0  0  0  0  0  0
   -0.6333    0.4958    0.0000 N   0  0  0  0  0  0  0  0  0  0  0  0
    0.0792    1.7375    0.0000 N   0  0  0  0  0  0  0  0  0  0  0  0
   -0.6333    1.3250    0.0000 C   0  0  0  0  0  0  0  0  0  0  0  0
    0.7917    1.3250    0.0000 C   0  0  0  0  0  0  0  0  0  0  0  0
    5.0917   -2.0125    0.0000 N   0  0  0  0  0  0  0  0  0  0  0  0
    5.8917   -0.9292    0.0000 C   0  0  0  0  0  0  0  0  0  0  0  0
    5.0917   -1.1750    0.0000 C   0  0  0  0  0  0  0  0  0  0  0  0
    6.3667   -1.6000    0.0000 C   0  0  0  0  0  0  0  0  0  0  0  0
    5.8792   -2.2750    0.0000 O   0  0  0  0  0  0  0  0  0  0  0  0
    1.5167    0.0750    0.0000 C   0  0  0  0  0  0  0  0  0  0  0  0
    2.9542    0.0750    0.0000 N   0  0  0  0  0  0  0  0  0  0  0  0
    6.2292   -0.1792    0.0000 C   0  0  0  0  0  0  0  0  0  0  0  0
    7.1875   -1.5250    0.0000 C   0  0  0  0  0  0  0  0  0  0  0  0
    0.0792   -0.7500    0.0000 O   0  0  0  0  0  0  0  0  0  0  0  0
    4.3792   -0.7542    0.0000 C   0  0  0  0  0  0  0  0  0  0  0  0
    2.2375    0.4958    0.0000 C   0  0  0  0  0  0  0  0  0  0  0  0
    7.5292   -0.7750    0.0000 C   0  0  0  0  0  0  0  0  0  0  0  0
    3.6625   -1.1667    0.0000 C   0  0  0  0  0  0  0  0  0  0  0  0
    4.3917    0.0750    0.0000 C   0  0  0  0  0  0  0  0  0  0  0  0
    2.9542   -0.7500    0.0000 C   0  0  0  0  0  0  0  0  0  0  0  0
    3.6750    0.4958    0.0000 C   0  0  0  0  0  0  0  0  0  0  0  0
   -1.3583    0.0750    0.0000 C   0  0  0  0  0  0  0  0  0  0  0  0
    7.0500   -0.0917    0.0000 C   0  0  0  0  0  0  0  0  0  0  0  0
   -1.3583    1.7375    0.0000 C   0  0  0  0  0  0  0  0  0  0  0  0
    1.5167    1.7375    0.0000 C   0  0  0  0  0  0  0  0  0  0  0  0
    8.3542   -0.6917    0.0000 F   0  0  0  0  0  0  0  0  0  0  0  0
   -2.0708    0.4958    0.0000 C   0  0  0  0  0  0  0  0  0  0  0  0
   -2.0708    1.3250    0.0000 C   0  0  0  0  0  0  0  0  0  0  0  0
  2  1  1  0
  3  2  1  0
  4  6  1  0
  5  4  2  0
  6  1  2  0
  7  9  1  0
  8  9  1  0
  9 17  1  0
 10  8  2  0
 11  7  1  0
 12  1  1  0
 13 18  1  0
 14  8  1  0
 15 10  1  0
 16  2  2  0
 17 21  1  0
 18 12  1  0
 19 25  1  0
 20 22  1  0
 21 23  1  0
 22 13  1  0
 23 13  1  0
 24  3  1  0
 25 14  2  0
 26  5  1  0
 27  6  1  0
 28 19  1  0
 29 24  1  0
 30 26  1  0
  3  5  1  0
 17 20  1  0
 29 30  1  0
 10 11  1  0
 19 15  2  0
M  END

> <chembl_id>
CHEMBL364512

> <chembl_pref_name>
RISPERIDON

$$$$

     RDKit          2D

 26 29  0  0  0  0  0  0  0  0999 V2000
    6.2292   -4.1875    0.0000 C   0  0  0  0  0  0  0  0  0  0  0  0
    4.9875   -4.1875    0.0000 C   0  0  0  0  0  0  0  0  0  0  0  0
    5.6000   -5.2417    0.0000 N   0  0  0  0  0  0  0  0  0  0  0  0
    5.6000   -3.8250    0.0000 C   0  0  0  0  0  0  0  0  0  0  0  0
    4.9875   -4.9000    0.0000 C   0  0  0  0  0  0  0  0  0  0  0  0
    6.2292   -4.9000    0.0000 C   0  0  0  0  0  0  0  0  0  0  0  0
    4.3792   -3.8250    0.0000 C   0  0  0  0  0  0  0  0  0  0  0  0
    3.7417   -4.9042    0.0000 C   0  0  0  0  0  0  0  0  0  0  0  0
    3.1250   -5.2750    0.0000 N   0  0  0  0  0  0  0  0  0  0  0  0
    4.3792   -5.2417    0.0000 C   0  0  0  0  0  0  0  0  0  0  0  0
    3.7417   -4.1875    0.0000 C   0  0  0  0  0  0  0  0  0  0  0  0
    5.6000   -5.9542    0.0000 C   0  0  0  0  0  0  0  0  0  0  0  0
    6.8375   -3.8250    0.0000 C   0  0  0  0  0  0  0  0  0  0  0  0
    5.2042   -6.5667    0.0000 C   0  0  0  0  0  0  0  0  0  0  0  0
    5.9417   -6.5667    0.0000 C   0  0  0  0  0  0  0  0  0  0  0  0
    5.6000   -3.1250    0.0000 O   0  0  0  0  0  0  0  0  0  0  0  0
    2.5167   -4.9042    0.0000 C   0  0  0  0  0  0  0  0  0  0  0  0
    1.9042   -5.9667    0.0000 N   0  0  0  0  0  0  0  0  0  0  0  0
    6.8375   -3.1292    0.0000 O   0  0  0  0  0  0  0  0  0  0  0  0
    3.1542   -3.8250    0.0000 F   0  0  0  0  0  0  0  0  0  0  0  0
    1.9042   -5.3042    0.0000 C   0  0  0  0  0  0  0  0  0  0  0  0
    7.4542   -4.1875    0.0000 O   0  0  0  0  0  0  0  0  0  0  0  0
    3.1250   -5.9667    0.0000 C   0  0  0  0  0  0  0  0  0  0  0  0
    2.5167   -6.3375    0.0000 C   0  0  0  0  0  0  0  0  0  0  0  0
    4.3792   -3.1292    0.0000 C   0  0  0  0  0  0  0  0  0  0  0  0
    1.2792   -5.0042    0.0000 C   0  0  0  0  0  0  0  0  0  0  0  0
  2  4  1  0
  3  6  1  0
  4  1  1  0
  5  3  1  0
  6  1  2  0
  7  2  1  0
  8 10  2  0
  9  8  1  0
 10  5  1  0
 11  7  2  0
 12  3  1  0
 13  1  1  0
 14 12  1  0
 15 12  1  0
 16  4  2  0
 17  9  1  0
 18 24  1  0
 19 13  2  0
 20 11  1  0
 21 17  1  0
 22 13  1  0
 23  9  1  0
 24 23  1  0
 25  7  1  0
 26 21  1  0
  5  2  2  0
 15 14  1  0
  8 11  1  0
 18 21  1  0
M  END

> <chembl_id>
CHEMBL583

> <chembl_pref_name>
GREPAFLOXACIN

$$$$

     RDKit          2D

 21 23  0  0  0  0  0  0  0  0999 V2000
   -0.3625   -0.0625    0.0000 C   0  0  0  0  0  0  0  0  0  0  0  0
   -1.1083    0.2958    0.0000 C   0  0  0  0  0  0  0  0  0  0  0  0
    0.2125    0.5333    0.0000 N   0  0  0  0  0  0  0  0  0  0  0  0
   -0.9875    1.1125    0.0000 C   0  0  0  0  0  0  0  0  0  0  0  0
   -0.1833    1.2583    0.0000 C   0  0  0  0  0  0  0  0  0  0  0  0
    0.3500   -0.4750    0.0000 C   0  0  0  0  0  0  0  0  0  0  0  0
   -1.1083   -0.5292    0.0000 C   0  0  0  0  0  0  0  0  0  0  0  0
   -1.8208    0.7083    0.0000 C   0  0  0  0  0  0  0  0  0  0  0  0
    1.0292    0.4208    0.0000 C   0  0  0  0  0  0  0  0  0  0  0  0
    0.1792    2.0083    0.0000 C   0  0  0  0  0  0  0  0  0  0  0  0
    0.3500   -1.3000    0.0000 C   0  0  0  0  0  0  0  0  0  0  0  0
   -1.8208    1.5375    0.0000 C   0  0  0  0  0  0  0  0  0  0  0  0
   -2.5375    0.2958    0.0000 C   0  0  0  0  0  0  0  0  0  0  0  0
   -1.8208   -0.9417    0.0000 C   0  0  0  0  0  0  0  0  0  0  0  0
   -0.3958   -0.9375    0.0000 C   0  0  0  0  0  0  0  0  0  0  0  0
   -2.5375    1.9583    0.0000 C   0  0  0  0  0  0  0  0  0  0  0  0
   -1.8208   -1.7625    0.0000 C   0  0  0  0  0  0  0  0  0  0  0  0
   -0.3833   -1.7542    0.0000 C   0  0  0  0  0  0  0  0  0  0  0  0
   -3.2500    0.7083    0.0000 C   0  0  0  0  0  0  0  0  0  0  0  0
   -3.2500    1.5375    0.0000 C   0  0  0  0  0  0  0  0  0  0  0  0
   -1.1000   -2.1750    0.0000 C   0  0  0  0  0  0  0  0  0  0  0  0
  2  1  1  0
  3  1  1  0
  4  2  1  0
  5  3  1  0
  6  1  2  0
  7  2  1  0
  8  2  1  0
  9  3  1  0
 10  5  1  0
 11  6  1  0
 12  8  1  0
 13  8  2  0
 14  7  2  0
 15  7  1  0
 16 12  2  0
 17 14  1  0
 18 15  2  0
 19 13  1  0
 20 19  2  0
 21 18  1  0
  4  5  1  0
 20 16  1  0
 21 17  2  0
M  END

> <chembl_id>
CHEMBL196431

> <chembl_pref_name>
None

$$$$

     RDKit          2D

 26 27  0  0  0  0  0  0  0  0999 V2000
   -0.0583   -3.6542    0.0000 C   0  0  0  0  0  0  0  0  0  0  0  0
   -0.0958   -2.6042    0.0000 C   0  0  0  0  0  0  0  0  0  0  0  0
   -0.0708   -4.6417    0.0000 C   0  0  0  0  0  0  0  0  0  0  0  0
    0.5000   -2.2667    0.0000 O   0  0  0  0  0  0  0  0  0  0  0  0
    0.5000   -1.5875    0.0000 C   0  0  0  0  0  0  0  0  0  0  0  0
    0.5167   -4.9875    0.0000 C   0  0  0  0  0  0  0  0  0  0  0  0
   -0.7458   -3.6542    0.0000 C   0  0  0  0  0  0  0  0  0  0  0  0
    0.6250   -3.6542    0.0000 C   0  0  0  0  0  0  0  0  0  0  0  0
    0.5167   -5.6667    0.0000 N   0  0  0  0  0  0  0  0  0  0  0  0
    1.0917   -1.2417    0.0000 O   0  0  0  0  0  0  0  0  0  0  0  0
   -0.6833   -2.2667    0.0000 C   0  0  0  0  0  0  0  0  0  0  0  0
   -0.0958   -1.2417    0.0000 C   0  0  0  0  0  0  0  0  0  0  0  0
   -0.0708   -6.0042    0.0000 C   0  0  0  0  0  0  0  0  0  0  0  0
    1.1125   -6.0042    0.0000 C   0  0  0  0  0  0  0  0  0  0  0  0
    1.1125   -4.6417    0.0000 C   0  0  0  0  0  0  0  0  0  0  0  0
    0.9542   -3.0667    0.0000 C   0  0  0  0  0  0  0  0  0  0  0  0
   -1.0750   -4.2542    0.0000 C   0  0  0  0  0  0  0  0  0  0  0  0
   -1.0958   -3.0667    0.0000 C   0  0  0  0  0  0  0  0  0  0  0  0
    0.9625   -4.2417    0.0000 C   0  0  0  0  0  0  0  0  0  0  0  0
   -1.3333   -2.6625    0.0000 C   0  0  0  0  0  0  0  0  0  0  0  0
   -1.7833   -3.0792    0.0000 C   0  0  0  0  0  0  0  0  0  0  0  0
    1.6417   -4.2417    0.0000 C   0  0  0  0  0  0  0  0  0  0  0  0
    1.6417   -3.0542    0.0000 C   0  0  0  0  0  0  0  0  0  0  0  0
   -1.7708   -4.2667    0.0000 C   0  0  0  0  0  0  0  0  0  0  0  0
   -2.1208   -3.6750    0.0000 C   0  0  0  0  0  0  0  0  0  0  0  0
    1.9875   -3.6500    0.0000 C   0  0  0  0  0  0  0  0  0  0  0  0
  2  1  1  0
  3  1  1  0
  2  4  1  6
  5  4  1  0
  6  3  1  0
  7  1  1  0
  8  1  1  0
  6  9  1  6
 10  5  2  0
 11  2  1  0
 12  5  1  0
 13  9  1  0
 14  9  1  0
 15  6  1  0
 16  8  2  0
 17  7  2  0
 18  7  1  0
 19  8  1  0
 20 11  1  0
 21 18  2  0
 22 19  2  0
 23 16  1  0
 24 17  1  0
 25 21  1  0
 26 23  2  0
 26 22  1  0
 24 25  2  0
M  END

> <chembl_id>
CHEMBL1514

> <chembl_pref_name>
LEVOMETHADYL ACETATE

$$$$

     RDKit          2D

 25 29  0  0  0  0  0  0  0  0999 V2000
   -1.3993   -0.6527    0.0000 C   0  0  0  0  0  0  0  0  0  0  0  0
   -2.2225   -0.6527    0.0000 C   0  0  0  0  0  0  0  0  0  0  0  0
   -1.0025    0.0725    0.0000 C   0  0  0  0  0  0  0  0  0  0  0  0
   -2.6235   -1.3737    0.0000 C   0  0  0  0  0  0  0  0  0  0  0  0
   -0.9897   -1.3609    0.0000 C   0  0  0  0  0  0  0  0  0  0  0  0
   -1.7832   -1.9112    0.0000 O   0  0  0  0  0  0  0  0  0  0  0  0
   -1.4120    0.7764    0.0000 C   0  0  0  0  0  0  0  0  0  0  0  0
   -2.6363    0.0512    0.0000 C   0  0  0  0  0  0  0  0  0  0  0  0
   -0.1877    0.0853    0.0000 C   0  0  0  0  0  0  0  0  0  0  0  0
   -2.2439    0.7722    0.0000 C   0  0  0  0  0  0  0  0  0  0  0  0
   -1.3993    1.6381    0.0000 N   0  0  0  0  0  0  0  0  0  0  0  0
   -2.0561   -0.0043    0.0000 C   0  0  0  0  0  0  0  0  0  0  0  0
    0.2389   -0.6356    0.0000 C   0  0  0  0  0  0  0  0  0  0  0  0
   -0.1664   -1.3609    0.0000 C   0  0  0  0  0  0  0  0  0  0  0  0
   -3.4426   -1.3865    0.0000 C   0  0  0  0  0  0  0  0  0  0  0  0
   -2.0007    1.0451    0.0000 C   0  0  0  0  0  0  0  0  0  0  0  0
   -3.4682    0.0341    0.0000 C   0  0  0  0  0  0  0  0  0  0  0  0
   -3.8692   -0.6783    0.0000 C   0  0  0  0  0  0  0  0  0  0  0  0
   -3.8478   -2.0988    0.0000 O   0  0  0  0  0  0  0  0  0  0  0  0
    0.2603   -2.0817    0.0000 O   0  0  0  0  0  0  0  0  0  0  0  0
   -1.1262    2.4060    0.0000 C   0  0  0  0  0  0  0  0  0  0  0  0
   -0.8873    1.4077    0.0000 H   0  0  0  0  0  0  0  0  0  0  0  0
   -0.5887    0.7850    0.0000 H   0  0  0  0  0  0  0  0  0  0  0  0
   -0.9982   -2.1756    0.0000 H   0  0  0  0  0  0  0  0  0  0  0  0
   -4.6925   -2.1043    0.0000 C   0  0  0  0  0  0  0  0  0  0  0  0
  2  1  1  0
  3  1  1  0
  4  2  2  0
  5  1  1  0
  6  5  1  0
  7  3  1  0
  8  2  1  0
  9  3  1  0
 10  7  1  0
 11 16  1  0
  1 12  1  1
 13 14  1  0
 14  5  1  0
 15  4  1  0
 16 12  1  0
 17  8  2  0
 18 17  1  0
 19 15  1  0
 14 20  1  6
 21 11  1  0
  7 22  1  6
  3 23  1  1
  5 24  1  1
  4  6  1  0
  7 11  1  0
 13  9  2  0
  8 10  1  0
 18 15  2  0
 19 25  1  0
M  END

> <chembl_id>
CHEMBL485

> <chembl_pref_name>
CODEINE

$$$$

     RDKit          2D

 34 40  0  0  1  0  0  0  0  0999 V2000
   -1.0891   -3.0584    0.0000 C   0  0  0  0  0  0  0  0  0  0  0  0
   -0.9279   -1.8692    0.0000 O   0  0  0  0  0  0  0  0  0  0  0  0
   -2.1400   -0.9600    0.0000 C   0  0  0  0  0  0  0  0  0  0  0  0
   -0.7900   -1.7400    0.0000 C   0  0  0  0  0  0  0  0  0  0  0  0
    0.5400   -0.9600    0.0000 C   0  0  0  0  0  0  0  0  0  0  0  0
    0.5400    0.5600    0.0000 C   0  0  0  0  0  0  0  0  0  0  0  0
   -0.8600    0.2700    0.0000 C   0  0  0  0  0  0  0  0  0  0  0  0
   -0.8600   -0.7000    0.0000 C   0  0  0  0  0  0  0  0  0  0  0  0
    0.3497   -1.5890    0.0000 C   0  0  0  0  0  0  0  0  0  0  0  0
    0.2189   -2.7819    0.0000 C   0  0  0  0  0  0  0  0  0  0  0  0
    0.4806   -0.3962    0.0000 O   0  0  0  0  0  0  0  0  0  0  0  0
    1.7238   -0.9853    0.0000 C   0  0  0  0  0  0  0  0  0  0  0  0
    2.6916   -1.6948    0.0000 C   0  0  0  0  0  0  0  0  0  0  0  0
    1.8547    0.2075    0.0000 C   0  0  0  0  0  0  0  0  0  0  0  0
    2.8222   -0.5021    0.0000 C   0  0  0  0  0  0  0  0  0  0  0  0
    1.8900    1.3600    0.0000 C   0  0  0  0  0  0  0  0  0  0  0  0
    1.8900    2.9100    0.0000 C   0  0  0  0  0  0  0  0  0  0  0  0
    0.5400    3.7000    0.0000 C   0  0  0  0  0  0  0  0  0  0  0  0
    0.5400    5.2600    0.0000 C   0  0  0  0  0  0  0  0  0  0  0  0
   -0.7900    6.0400    0.0000 C   0  0  0  0  0  0  0  0  0  0  0  0
   -2.1400    5.2600    0.0000 C   0  0  0  0  0  0  0  0  0  0  0  0
   -3.1793    5.8598    0.0000 O   0  0  0  0  0  0  0  0  0  0  0  0
   -2.1400    3.7000    0.0000 C   0  0  0  0  0  0  0  0  0  0  0  0
   -3.2900    2.1500    0.0000 O   0  0  0  0  0  0  0  0  0  0  0  0
   -2.1400    0.5600    0.0000 C   0  0  0  0  0  0  0  0  0  0  0  0
   -0.7900    1.3600    0.0000 C   0  0  0  0  0  0  0  0  0  0  0  0
    0.5000    2.1200    0.0000 C   0  0  0  0  0  0  0  0  0  0  0  0
    2.6600    2.1000    0.0000 C   0  0  0  0  0  0  0  0  0  0  0  0
    3.2500    0.5600    0.0000 N   0  0  0  0  0  0  0  0  0  0  0  0
    4.2179   -0.5671    0.0000 C   0  0  0  0  0  0  0  0  0  0  0  0
    5.6931   -0.2910    0.0000 C   0  0  0  0  0  0  0  0  0  0  0  0
    7.0193   -0.8030    0.0000 C   0  0  0  0  0  0  0  0  0  0  0  0
    6.7399    0.6708    0.0000 C   0  0  0  0  0  0  0  0  0  0  0  0
   -0.7900    2.9100    0.0000 C   0  0  0  0  0  0  0  0  0  0  0  0
  1  2  1  0
  3  2  1  6
  3  4  1  0
  4  5  1  0
  6  5  1  6
  6  7  1  0
  8  7  1  6
  8  3  1  0
  8  9  1  0
  9 10  1  1
  9 11  1  0
  9 12  1  0
 12 13  1  0
 12 14  1  0
 12 15  1  0
  6 16  1  0
 16 17  1  1
 17 18  1  0
 18 19  2  0
 19 20  1  0
 20 21  2  0
 21 22  1  0
 21 23  1  0
 23 24  1  0
 25 24  1  6
 25  3  1  0
 25 26  1  0
 26  6  1  0
 26 27  1  1
 27 28  1  0
 28 29  1  0
 29 16  1  0
 29 30  1  0
 30 31  1  0
 31 32  1  0
 32 33  1  0
 33 31  1  0
 26 34  1  0
 34 18  1  0
 34 23  2  0
M  END

> <chembl_id>
CHEMBL511142

> <chembl_pref_name>
BUPRENORPHINE

$$$$

     RDKit          2D

 24 26  0  0  1  0  0  0  0  0999 V2000
    1.4600    0.0457    0.0000 C   0  0  0  0  0  0  0  0  0  0  0  0
    0.4110    0.3854    0.0000 C   0  0  0  0  0  0  0  0  0  0  0  0
    1.3103    0.7976    0.0000 C   0  0  0  0  0  0  0  0  0  0  0  0
   -0.0951    0.0333    0.0000 C   0  0  0  0  0  0  0  0  0  0  0  0
    0.3143    1.9971    0.0000 N   0  0  0  0  0  0  0  0  0  0  0  0
    0.5860    1.1191    0.0000 C   0  0  0  0  0  0  0  0  0  0  0  0
   -0.2009    0.7724    0.0000 C   0  0  0  0  0  0  0  0  0  0  0  0
   -0.6203    0.0625    0.0000 C   0  0  0  0  0  0  0  0  0  0  0  0
    0.1319   -0.7609    0.0000 C   0  0  0  0  0  0  0  0  0  0  0  0
   -0.4453   -1.3530    0.0000 O   0  0  0  0  0  0  0  0  0  0  0  0
    0.9319   -0.9587    0.0000 O   0  0  0  0  0  0  0  0  0  0  0  0
   -0.0626   -2.0855    0.0000 C   0  0  0  0  0  0  0  0  0  0  0  0
   -1.3493   -0.3266    0.0000 O   0  0  0  0  0  0  0  0  0  0  0  0
   -2.0513    0.1054    0.0000 C   0  0  0  0  0  0  0  0  0  0  0  0
   -2.7760   -0.2837    0.0000 C   0  0  0  0  0  0  0  0  0  0  0  0
   -2.0246    0.9308    0.0000 O   0  0  0  0  0  0  0  0  0  0  0  0
   -3.4776    0.1514    0.0000 C   0  0  0  0  0  0  0  0  0  0  0  0
   -4.2056   -0.2367    0.0000 C   0  0  0  0  0  0  0  0  0  0  0  0
   -4.2288   -1.0634    0.0000 C   0  0  0  0  0  0  0  0  0  0  0  0
   -3.5232   -1.4997    0.0000 C   0  0  0  0  0  0  0  0  0  0  0  0
   -2.7996   -1.1078    0.0000 C   0  0  0  0  0  0  0  0  0  0  0  0
    1.2245    1.6455    0.0000 H   0  0  0  0  0  0  0  0  0  0  0  0
    0.8229   -0.3201    0.0000 H   0  0  0  0  0  0  0  0  0  0  0  0
    0.1622    2.8103    0.0000 C   0  0  0  0  0  0  0  0  0  0  0  0
  1  2  1  0
  1  3  1  0
  2  4  1  0
  2  5  1  0
  3  6  1  0
  6  7  1  0
  6  5  1  0
  7  8  1  0
  8  4  1  0
  4  9  1  1
  9 10  1  0
  9 11  2  0
 10 12  1  0
  8 13  1  1
 13 14  1  0
 14 15  1  0
 14 16  2  0
 15 17  2  0
 17 18  1  0
 18 19  2  0
 19 20  1  0
 20 21  2  0
 21 15  1  0
  6 22  1  6
  2 23  1  1
  5 24  1  0
M  END

> <chembl_id>
CHEMBL370805

> <chembl_pref_name>
COCAINE

$$$$

     RDKit          2D

 32 35  0  0  0  0  0  0  0  0999 V2000
    6.1418   -1.8826    0.0000 N   0  0  0  0  0  0  0  0  0  0  0  0
    5.3876   -2.2169    0.0000 C   0  0  0  0  0  0  0  0  0  0  0  0
    4.8485   -1.6017    0.0000 N   0  0  0  0  0  0  0  0  0  0  0  0
    6.0569   -1.0619    0.0000 C   0  0  0  0  0  0  0  0  0  0  0  0
    5.2502   -0.8891    0.0000 C   0  0  0  0  0  0  0  0  0  0  0  0
    1.4293   -0.8252    0.0000 C   0  0  0  0  0  0  0  0  0  0  0  0
    4.0272   -1.6849    0.0000 N   0  0  0  0  0  0  0  0  0  0  0  0
    2.1731   -0.4848    0.0000 O   0  0  0  0  0  0  0  0  0  0  0  0
    1.5039   -1.6398    0.0000 C   0  0  0  0  0  0  0  0  0  0  0  0
    2.7242   -1.0988    0.0000 C   0  0  0  0  0  0  0  0  0  0  0  0
    3.5441   -1.0156    0.0000 C   0  0  0  0  0  0  0  0  0  0  0  0
   11.1434   -3.1211    0.0000 N   0  0  0  0  0  0  0  0  0  0  0  0
    9.7157   -2.2938    0.0000 N   0  0  0  0  0  0  0  0  0  0  0  0
    2.3106   -1.8126    0.0000 C   0  0  0  0  0  0  0  0  0  0  0  0
    5.2455   -2.8614    0.0000 O   0  0  0  0  0  0  0  0  0  0  0  0
    0.7145   -0.4125    0.0000 C   0  0  0  0  0  0  0  0  0  0  0  0
    6.5481   -0.6211    0.0000 O   0  0  0  0  0  0  0  0  0  0  0  0
    6.8557   -2.2942    0.0000 C   0  0  0  0  0  0  0  0  0  0  0  0
    0.7145    0.4125    0.0000 C   0  0  0  0  0  0  0  0  0  0  0  0
    0.0000   -0.8250    0.0000 C   0  0  0  0  0  0  0  0  0  0  0  0
   11.1447   -2.2961    0.0000 C   0  0  0  0  0  0  0  0  0  0  0  0
   10.4283   -3.5325    0.0000 C   0  0  0  0  0  0  0  0  0  0  0  0
   10.4308   -1.8825    0.0000 C   0  0  0  0  0  0  0  0  0  0  0  0
    9.7144   -3.1188    0.0000 C   0  0  0  0  0  0  0  0  0  0  0  0
   -0.7145    0.4125    0.0000 C   0  0  0  0  0  0  0  0  0  0  0  0
   -0.7145   -0.4125    0.0000 C   0  0  0  0  0  0  0  0  0  0  0  0
    0.0000    0.8250    0.0000 C   0  0  0  0  0  0  0  0  0  0  0  0
   -1.2861    0.7425    0.0000 Cl  0  0  0  0  0  0  0  0  0  0  0  0
    9.0006   -1.8814    0.0000 C   0  0  0  0  0  0  0  0  0  0  0  0
   11.7144   -3.4520    0.0000 C   0  0  0  0  0  0  0  0  0  0  0  0
    7.5706   -1.8816    0.0000 C   0  0  0  0  0  0  0  0  0  0  0  0
    8.2856   -2.2940    0.0000 C   0  0  0  0  0  0  0  0  0  0  0  0
  1  2  1  0
  2  3  1  0
  1  4  1  0
  3  5  1  0
  4  5  1  0
  3  7  1  0
  6  8  1  0
  6  9  2  0
  8 10  1  0
  7 11  2  0
 10 11  1  0
  9 14  1  0
 10 14  2  0
  2 15  2  0
  6 16  1  0
  4 17  2  0
  1 18  1  0
 16 19  2  0
 16 20  1  0
 12 21  1  0
 12 22  1  0
 13 23  1  0
 21 23  1  0
 13 24  1  0
 22 24  1  0
 20 26  2  0
 25 26  1  0
 19 27  1  0
 25 27  2  0
 25 28  1  0
 13 29  1  0
 12 30  1  0
 18 31  1  0
 29 32  1  0
 31 32  1  0
M  END

> <chembl_id>
CHEMBL123558

> <chembl_pref_name>
AZIMILIDE

$$$$

     RDKit          2D

 25 27  0  0  1  0  0  0  0  0999 V2000
    2.3167   -0.7542    0.0000 N   0  0  0  0  0  0  0  0  0  0  0  0
    4.5500   -1.4167    0.0000 N   0  0  0  0  0  0  0  0  0  0  0  0
    5.2625   -1.8292    0.0000 C   0  0  0  0  0  0  0  0  0  0  0  0
    3.9667   -2.0042    0.0000 C   0  0  0  0  0  0  0  0  0  0  0  0
    3.4417   -1.5792    0.0000 C   0  0  0  0  0  0  0  0  0  0  0  0
    3.8292   -1.1875    0.0000 C   0  0  0  0  0  0  0  0  0  0  0  0
    2.8917   -1.2000    0.0000 C   0  0  0  0  0  0  0  0  0  0  0  0
    2.4625   -1.5792    0.0000 C   0  0  0  0  0  0  0  0  0  0  0  0
    5.3750   -2.6542    0.0000 O   0  0  0  0  0  0  0  0  0  0  0  0
    4.5500   -0.5917    0.0000 C   0  0  0  0  0  0  0  0  0  0  0  0
    1.8292   -1.4167    0.0000 C   0  0  0  0  0  0  0  0  0  0  0  0
    1.0125   -1.3292    0.0000 C   0  0  0  0  0  0  0  0  0  0  0  0
    0.5167   -1.9917    0.0000 C   0  0  0  0  0  0  0  0  0  0  0  0
    5.8500   -1.2417    0.0000 C   0  0  0  0  0  0  0  0  0  0  0  0
    3.8292   -0.1917    0.0000 C   0  0  0  0  0  0  0  0  0  0  0  0
    5.2625   -0.1792    0.0000 C   0  0  0  0  0  0  0  0  0  0  0  0
   -0.3000   -1.9000    0.0000 C   0  0  0  0  0  0  0  0  0  0  0  0
    0.8500   -2.7417    0.0000 C   0  0  0  0  0  0  0  0  0  0  0  0
    6.6417   -1.4542    0.0000 C   0  0  0  0  0  0  0  0  0  0  0  0
    3.8250    0.6333    0.0000 C   0  0  0  0  0  0  0  0  0  0  0  0
    5.2542    0.6458    0.0000 C   0  0  0  0  0  0  0  0  0  0  0  0
    0.3667   -3.4125    0.0000 C   0  0  0  0  0  0  0  0  0  0  0  0
   -0.7958   -2.5625    0.0000 C   0  0  0  0  0  0  0  0  0  0  0  0
    4.5417    1.0500    0.0000 C   0  0  0  0  0  0  0  0  0  0  0  0
   -0.4625   -3.3167    0.0000 C   0  0  0  0  0  0  0  0  0  0  0  0
  2  4  1  0
  3  2  1  0
  4  5  1  1
  5  8  1  0
  6  7  1  0
  7  1  1  0
  8  1  1  0
  9  3  2  0
 10  2  1  0
 11  1  1  0
 12 11  1  0
 13 12  1  0
 14  3  1  0
 15 10  1  0
 16 10  2  0
 17 13  2  0
 18 13  1  0
 19 14  1  0
 20 15  2  0
 21 16  1  0
 22 18  2  0
 23 17  1  0
 24 21  2  0
 25 22  1  0
  6  4  1  0
 25 23  2  0
 20 24  1  0
M  END

> <chembl_id>
CHEMBL596

> <chembl_pref_name>
FENTANYL

$$$$

     RDKit          2D

 28 31  0  0  0  0  0  0  0  0999 V2000
   -1.2545    2.1588    0.0000 C   0  0  0  0  0  0  0  0  0  0  0  0
   -1.2545    1.3336    0.0000 C   0  0  0  0  0  0  0  0  0  0  0  0
   -0.5422    0.9252    0.0000 C   0  0  0  0  0  0  0  0  0  0  0  0
   -0.5422    2.5756    0.0000 O   0  0  0  0  0  0  0  0  0  0  0  0
    0.1699    2.1588    0.0000 C   0  0  0  0  0  0  0  0  0  0  0  0
    0.1683    1.3355    0.0000 C   0  0  0  0  0  0  0  0  0  0  0  0
    0.8794    0.9242    0.0000 C   0  0  0  0  0  0  0  0  0  0  0  0
    1.5926    1.3351    0.0000 C   0  0  0  0  0  0  0  0  0  0  0  0
    1.5902    2.1616    0.0000 C   0  0  0  0  0  0  0  0  0  0  0  0
    0.8785    2.5692    0.0000 C   0  0  0  0  0  0  0  0  0  0  0  0
   -0.5410    0.1000    0.0000 C   0  0  0  0  0  0  0  0  0  0  0  0
   -1.2551   -0.3136    0.0000 C   0  0  0  0  0  0  0  0  0  0  0  0
   -1.2539   -1.1387    0.0000 N   0  0  0  0  0  0  0  0  0  0  0  0
   -1.9667   -1.5540    0.0000 C   0  0  0  0  0  0  0  0  0  0  0  0
   -1.9675   -2.3756    0.0000 C   0  0  0  0  0  0  0  0  0  0  0  0
   -1.2542   -2.7910    0.0000 C   0  0  0  0  0  0  0  0  0  0  0  0
   -0.5383   -2.3786    0.0000 C   0  0  0  0  0  0  0  0  0  0  0  0
   -0.5358   -1.5508    0.0000 C   0  0  0  0  0  0  0  0  0  0  0  0
   -1.2561   -3.6162    0.0000 C   0  0  0  0  0  0  0  0  0  0  0  0
   -1.9727   -4.0216    0.0000 C   0  0  0  0  0  0  0  0  0  0  0  0
   -1.9749   -4.8460    0.0000 C   0  0  0  0  0  0  0  0  0  0  0  0
   -1.2608   -5.2611    0.0000 C   0  0  0  0  0  0  0  0  0  0  0  0
   -0.5428   -4.8457    0.0000 C   0  0  0  0  0  0  0  0  0  0  0  0
   -0.5440   -4.0227    0.0000 C   0  0  0  0  0  0  0  0  0  0  0  0
   -2.6908   -5.2566    0.0000 O   0  0  0  0  0  0  0  0  0  0  0  0
   -3.4042   -4.8420    0.0000 C   0  0  0  0  0  0  0  0  0  0  0  0
   -1.2616   -6.0863    0.0000 O   0  0  0  0  0  0  0  0  0  0  0  0
   -1.9766   -6.4981    0.0000 C   0  0  0  0  0  0  0  0  0  0  0  0
 13 14  1  0
  1  4  1  0
  6  7  1  0
  2  3  1  0
  7  8  2  0
  3  6  1  0
 13 18  1  0
 14 15  1  0
 15 16  1  0
 16 17  1  0
 17 18  1  0
  8  9  1  0
 16 19  1  0
  5  4  1  0
 19 20  2  0
  9 10  2  0
 20 21  1  0
 10  5  1  0
 21 22  2  0
 22 23  1  0
  3 11  1  1
 23 24  2  0
 24 19  1  0
  1  2  1  0
 21 25  1  0
 11 12  1  0
 25 26  1  0
  5  6  2  0
 22 27  1  0
 12 13  1  0
 27 28  1  0
M  END

> <chembl_id>
CHEMBL96153

> <chembl_pref_name>
TERIKALANT

$$$$

     RDKit          2D

 34 38  0  0  0  0  0  0  0  0999 V2000
    4.9354   -1.7689    0.0000 C   0  0  0  0  0  0  0  0  0  0  0  0
    5.4203   -2.4364    0.0000 N   0  0  0  0  0  0  0  0  0  0  0  0
    5.4203   -1.1015    0.0000 N   0  0  0  0  0  0  0  0  0  0  0  0
    6.2049   -2.1814    0.0000 C   0  0  0  0  0  0  0  0  0  0  0  0
    6.2049   -1.3564    0.0000 C   0  0  0  0  0  0  0  0  0  0  0  0
    5.1653   -3.2210    0.0000 C   0  0  0  0  0  0  0  0  0  0  0  0
    4.6555   -4.7903    0.0000 N   0  0  0  0  0  0  0  0  0  0  0  0
    4.1104   -1.7689    0.0000 O   0  0  0  0  0  0  0  0  0  0  0  0
    4.3584   -3.3925    0.0000 C   0  0  0  0  0  0  0  0  0  0  0  0
    5.7174   -3.8341    0.0000 C   0  0  0  0  0  0  0  0  0  0  0  0
    5.2497   -7.5857    0.0000 C   0  0  0  0  0  0  0  0  0  0  0  0
    4.9947   -8.3703    0.0000 C   0  0  0  0  0  0  0  0  0  0  0  0
    6.0566   -7.4142    0.0000 C   0  0  0  0  0  0  0  0  0  0  0  0
    4.1034   -4.1772    0.0000 C   0  0  0  0  0  0  0  0  0  0  0  0
    5.4624   -4.6187    0.0000 C   0  0  0  0  0  0  0  0  0  0  0  0
    6.6087   -8.0273    0.0000 C   0  0  0  0  0  0  0  0  0  0  0  0
    4.1877   -8.5418    0.0000 C   0  0  0  0  0  0  0  0  0  0  0  0
    5.5467   -8.9834    0.0000 C   0  0  0  0  0  0  0  0  0  0  0  0
    6.3116   -6.6295    0.0000 C   0  0  0  0  0  0  0  0  0  0  0  0
    7.6706   -7.0711    0.0000 C   0  0  0  0  0  0  0  0  0  0  0  0
    4.4848   -9.9395    0.0000 C   0  0  0  0  0  0  0  0  0  0  0  0
    7.1185   -6.4580    0.0000 C   0  0  0  0  0  0  0  0  0  0  0  0
    5.2918   -9.7680    0.0000 C   0  0  0  0  0  0  0  0  0  0  0  0
    7.4156   -7.8557    0.0000 C   0  0  0  0  0  0  0  0  0  0  0  0
    3.9328   -9.3265    0.0000 C   0  0  0  0  0  0  0  0  0  0  0  0
    4.2299  -10.7242    0.0000 F   0  0  0  0  0  0  0  0  0  0  0  0
    8.4775   -6.8996    0.0000 F   0  0  0  0  0  0  0  0  0  0  0  0
    4.4005   -5.5749    0.0000 C   0  0  0  0  0  0  0  0  0  0  0  0
    6.9194   -2.5939    0.0000 C   0  0  0  0  0  0  0  0  0  0  0  0
    6.9194   -0.9439    0.0000 C   0  0  0  0  0  0  0  0  0  0  0  0
    4.9526   -6.1880    0.0000 C   0  0  0  0  0  0  0  0  0  0  0  0
    4.6976   -6.9726    0.0000 C   0  0  0  0  0  0  0  0  0  0  0  0
    7.6338   -2.1814    0.0000 C   0  0  0  0  0  0  0  0  0  0  0  0
    7.6338   -1.3564    0.0000 C   0  0  0  0  0  0  0  0  0  0  0  0
  2  1  1  0
  3  1  1  0
  4  2  1  0
  5  3  1  0
  6  2  1  0
  7 15  1  0
  8  1  2  0
  9  6  1  0
 10  6  1  0
 11 32  1  0
 12 11  1  0
 13 11  1  0
 14  9  1  0
 15 10  1  0
 16 13  1  0
 17 12  2  0
 18 12  1  0
 19 13  2  0
 20 22  2  0
 21 23  1  0
 22 19  1  0
 23 18  2  0
 24 16  2  0
 25 17  1  0
 26 21  1  0
 27 20  1  0
 28  7  1  0
 29  4  2  0
 30  5  2  0
 31 28  1  0
 32 31  1  0
 33 29  1  0
 34 30  1  0
  4  5  1  0
 33 34  2  0
 14  7  1  0
 24 20  1  0
 25 21  2  0
M  END

> <chembl_id>
CHEMBL1423

> <chembl_pref_name>
PIMOZIDE

$$$$

     RDKit          2D

 28 32  0  0  0  0  0  0  0  0999 V2000
    2.3383   -1.3500    0.0000 Cl  0  0  0  0  0  0  0  0  0  0  0  0
    1.2990   -0.7500    0.0000 C   0  0  0  0  0  0  0  0  0  0  0  0
    1.2990    0.7500    0.0000 C   0  0  0  0  0  0  0  0  0  0  0  0
    0.0000    1.5000    0.0000 C   0  0  0  0  0  0  0  0  0  0  0  0
   -0.3115    2.9665    0.0000 N   0  0  0  0  0  0  0  0  0  0  0  0
   -1.8032    3.1233    0.0000 C   0  0  0  0  0  0  0  0  0  0  0  0
   -2.4033    4.1625    0.0000 O   0  0  0  0  0  0  0  0  0  0  0  0
   -2.4133    1.7530    0.0000 C   0  0  0  0  0  0  0  0  0  0  0  0
   -1.2990    0.7500    0.0000 C   0  0  0  0  0  0  0  0  0  0  0  0
   -1.2990   -0.7500    0.0000 C   0  0  0  0  0  0  0  0  0  0  0  0
    0.0000   -1.5000    0.0000 C   0  0  0  0  0  0  0  0  0  0  0  0
   -0.0031   -3.0008    0.0000 C   0  0  0  0  0  0  0  0  0  0  0  0
   -1.3039   -3.7494    0.0000 C   0  0  0  0  0  0  0  0  0  0  0  0
   -1.3070   -5.2502    0.0000 N   0  0  0  0  0  0  0  0  0  0  0  0
   -2.6060   -6.0003    0.0000 C   0  0  0  0  0  0  0  0  0  0  0  0
   -2.6060   -7.5003    0.0000 C   0  0  0  0  0  0  0  0  0  0  0  0
   -1.3070   -8.2503    0.0000 N   0  0  0  0  0  0  0  0  0  0  0  0
   -0.0080   -7.5003    0.0000 C   0  0  0  0  0  0  0  0  0  0  0  0
   -0.0079   -6.0003    0.0000 C   0  0  0  0  0  0  0  0  0  0  0  0
   -1.3071   -9.7511    0.0000 C   0  0  0  0  0  0  0  0  0  0  0  0
   -0.0924  -10.6092    0.0000 N   0  0  0  0  0  0  0  0  0  0  0  0
   -0.5539  -12.0365    0.0000 S   0  0  0  0  0  0  0  0  0  0  0  0
   -2.0531  -12.0383    0.0000 C   0  0  0  0  0  0  0  0  0  0  0  0
   -3.0552  -13.1544    0.0000 C   0  0  0  0  0  0  0  0  0  0  0  0
   -4.5229  -12.8446    0.0000 C   0  0  0  0  0  0  0  0  0  0  0  0
   -4.9884  -11.4187    0.0000 C   0  0  0  0  0  0  0  0  0  0  0  0
   -3.9863  -10.3026    0.0000 C   0  0  0  0  0  0  0  0  0  0  0  0
   -2.5186  -10.6124    0.0000 C   0  0  0  0  0  0  0  0  0  0  0  0
  1  2  1  0
  2  3  2  0
  3  4  1  0
  4  5  1  0
  5  6  1  0
  6  7  2  0
  6  8  1  0
  8  9  1  0
  9  4  2  0
  9 10  1  0
 10 11  2  0
 11  2  1  0
 11 12  1  0
 12 13  1  0
 13 14  1  0
 14 15  1  0
 15 16  1  0
 16 17  1  0
 17 18  1  0
 18 19  1  0
 19 14  1  0
 17 20  1  0
 20 21  2  0
 21 22  1  0
 22 23  1  0
 23 24  2  0
 24 25  1  0
 25 26  2  0
 26 27  1  0
 27 28  2  0
 28 20  1  0
 28 23  1  0
M  END

> <chembl_id>
CHEMBL708

> <chembl_pref_name>
ZIPRASIDONE

$$$$

     RDKit          2D

 19 20  0  0  0  0  0  0  0  0999 V2000
    2.7292   -5.0750    0.0000 C   0  0  0  0  0  0  0  0  0  0  0  0
    2.7292   -4.3625    0.0000 C   0  0  0  0  0  0  0  0  0  0  0  0
    1.4875   -5.1042    0.0000 N   0  0  0  0  0  0  0  0  0  0  0  0
    3.3417   -5.4417    0.0000 C   0  0  0  0  0  0  0  0  0  0  0  0
    2.1000   -5.4500    0.0000 C   0  0  0  0  0  0  0  0  0  0  0  0
    3.3542   -6.1542    0.0000 C   0  0  0  0  0  0  0  0  0  0  0  0
    3.9542   -5.0750    0.0000 C   0  0  0  0  0  0  0  0  0  0  0  0
    2.1125   -4.0167    0.0000 C   0  0  0  0  0  0  0  0  0  0  0  0
    2.1000   -3.3042    0.0000 N   0  0  0  0  0  0  0  0  0  0  0  0
    4.5792   -6.1417    0.0000 C   0  0  0  0  0  0  0  0  0  0  0  0
    4.5667   -5.4292    0.0000 C   0  0  0  0  0  0  0  0  0  0  0  0
    3.9750   -6.4917    0.0000 C   0  0  0  0  0  0  0  0  0  0  0  0
    5.2042   -6.5042    0.0000 Cl  0  0  0  0  0  0  0  0  0  0  0  0
    0.8792   -5.4667    0.0000 C   0  0  0  0  0  0  0  0  0  0  0  0
    2.1000   -6.1667    0.0000 C   0  0  0  0  0  0  0  0  0  0  0  0
    2.7042   -2.9417    0.0000 C   0  0  0  0  0  0  0  0  0  0  0  0
    1.4875   -2.9667    0.0000 C   0  0  0  0  0  0  0  0  0  0  0  0
    0.8792   -6.1917    0.0000 C   0  0  0  0  0  0  0  0  0  0  0  0
    1.5000   -6.5292    0.0000 C   0  0  0  0  0  0  0  0  0  0  0  0
  2  1  1  0
  3  5  2  0
  4  1  1  0
  5  1  1  0
  6  4  2  0
  7  4  1  0
  8  2  1  0
  9  8  1  0
 10 11  1  0
 11  7  2  0
 12  6  1  0
 13 10  1  0
 14  3  1  0
 15  5  1  0
 16  9  1  0
 17  9  1  0
 18 19  1  0
 19 15  2  0
 10 12  2  0
 18 14  2  0
M  END

> <chembl_id>
CHEMBL505

> <chembl_pref_name>
CHLORPHENIRAMINE

$$$$

     RDKit          2D

 31 33  0  0  0  0  0  0  0  0999 V2000
   -0.0097    0.7077    0.0000 C   0  0  0  0  0  0  0  0  0  0  0  0
    0.4799    1.3767    0.0000 C   0  0  0  0  0  0  0  0  0  0  0  0
   -0.0097   -0.1212    0.0000 C   0  0  0  0  0  0  0  0  0  0  0  0
   -0.0097    2.0457    0.0000 O   0  0  0  0  0  0  0  0  0  0  0  0
    0.6981   -0.5381    0.0000 C   0  0  0  0  0  0  0  0  0  0  0  0
   -0.7950    0.9550    0.0000 C   0  0  0  0  0  0  0  0  0  0  0  0
   -0.7950    1.7839    0.0000 C   0  0  0  0  0  0  0  0  0  0  0  0
    2.1136   -1.3719    0.0000 C   0  0  0  0  0  0  0  0  0  0  0  0
    1.3865   -1.7791    0.0000 C   0  0  0  0  0  0  0  0  0  0  0  0
    2.1136   -0.5430    0.0000 C   0  0  0  0  0  0  0  0  0  0  0  0
    0.6835   -1.3574    0.0000 C   0  0  0  0  0  0  0  0  0  0  0  0
    1.4107   -0.1309    0.0000 C   0  0  0  0  0  0  0  0  0  0  0  0
    4.9641   -1.4010    0.0000 N   0  0  0  0  0  0  0  0  0  0  0  0
   -0.7368   -0.5236    0.0000 O   0  0  0  0  0  0  0  0  0  0  0  0
    1.3865   -2.6032    0.0000 I   0  0  0  0  0  0  0  0  0  0  0  0
    2.8359   -0.1358    0.0000 I   0  0  0  0  0  0  0  0  0  0  0  0
    2.8214   -1.7937    0.0000 O   0  0  0  0  0  0  0  0  0  0  0  0
    1.2992    1.3816    0.0000 C   0  0  0  0  0  0  0  0  0  0  0  0
    4.2515   -1.8082    0.0000 C   0  0  0  0  0  0  0  0  0  0  0  0
    3.5389   -1.3865    0.0000 C   0  0  0  0  0  0  0  0  0  0  0  0
   -1.5076    0.5381    0.0000 C   0  0  0  0  0  0  0  0  0  0  0  0
   -1.5076    2.1911    0.0000 C   0  0  0  0  0  0  0  0  0  0  0  0
    5.6767   -1.8179    0.0000 C   0  0  0  0  0  0  0  0  0  0  0  0
    4.9738   -0.5721    0.0000 C   0  0  0  0  0  0  0  0  0  0  0  0
    1.7064    2.1039    0.0000 C   0  0  0  0  0  0  0  0  0  0  0  0
    2.5354    2.1039    0.0000 C   0  0  0  0  0  0  0  0  0  0  0  0
    6.3893   -1.4156    0.0000 C   0  0  0  0  0  0  0  0  0  0  0  0
    5.6913   -0.1745    0.0000 C   0  0  0  0  0  0  0  0  0  0  0  0
   -2.2202    0.9550    0.0000 C   0  0  0  0  0  0  0  0  0  0  0  0
   -2.2202    1.7743    0.0000 C   0  0  0  0  0  0  0  0  0  0  0  0
    2.9426    2.8214    0.0000 C   0  0  0  0  0  0  0  0  0  0  0  0
  2  1  2  0
  3  1  1  0
  4  2  1  0
  5  3  1  0
  6  1  1  0
  7  6  1  0
  8 10  1  0
  9 11  1  0
 10 12  2  0
 11  5  2  0
 12  5  1  0
 13 19  1  0
 14  3  2  0
 15  9  1  0
 16 10  1  0
 17  8  1  0
 18  2  1  0
 19 20  1  0
 20 17  1  0
 21  6  2  0
 22  7  2  0
 23 13  1  0
 24 13  1  0
 25 18  1  0
 26 25  1  0
 27 23  1  0
 28 24  1  0
 29 21  1  0
 30 29  2  0
 31 26  1  0
  7  4  1  0
 30 22  1  0
  8  9  2  0
M  END

> <chembl_id>
CHEMBL633

> <chembl_pref_name>
AMIODARONE

$$$$

     RDKit          2D

 24 25  0  0  0  0  0  0  0  0999 V2000
   17.1591   -9.7303    0.0000 C   0  0  0  0  0  0  0  0  0  0  0  0
   16.4386  -10.1414    0.0000 C   0  0  0  0  0  0  0  0  0  0  0  0
   14.3014   -9.7354    0.0000 N   0  0  0  0  0  0  0  0  0  0  0  0
   15.0122  -10.1560    0.0000 C   0  0  0  0  0  0  0  0  0  0  0  0
   15.7230   -9.7353    0.0000 C   0  0  0  0  0  0  0  0  0  0  0  0
   17.1591   -8.8939    0.0000 C   0  0  0  0  0  0  0  0  0  0  0  0
   17.8602  -10.1413    0.0000 C   0  0  0  0  0  0  0  0  0  0  0  0
   16.4386  -10.9634    0.0000 C   0  0  0  0  0  0  0  0  0  0  0  0
   17.8601   -8.4828    0.0000 C   0  0  0  0  0  0  0  0  0  0  0  0
   13.5906  -10.1416    0.0000 C   0  0  0  0  0  0  0  0  0  0  0  0
   14.3014   -8.9231    0.0000 C   0  0  0  0  0  0  0  0  0  0  0  0
   18.5807   -9.7303    0.0000 C   0  0  0  0  0  0  0  0  0  0  0  0
   18.5806   -8.8938    0.0000 C   0  0  0  0  0  0  0  0  0  0  0  0
   16.4385   -8.4829    0.0000 O   0  0  0  0  0  0  0  0  0  0  0  0
   17.1592  -11.3744    0.0000 C   0  0  0  0  0  0  0  0  0  0  0  0
   15.7231  -11.3745    0.0000 C   0  0  0  0  0  0  0  0  0  0  0  0
   14.9976   -8.5120    0.0000 C   0  0  0  0  0  0  0  0  0  0  0  0
   13.5762  -10.9636    0.0000 C   0  0  0  0  0  0  0  0  0  0  0  0
   12.8798   -9.7306    0.0000 C   0  0  0  0  0  0  0  0  0  0  0  0
   13.5905   -8.5024    0.0000 C   0  0  0  0  0  0  0  0  0  0  0  0
   19.2915  -10.1413    0.0000 C   0  0  0  0  0  0  0  0  0  0  0  0
   15.7232  -12.2013    0.0000 C   0  0  0  0  0  0  0  0  0  0  0  0
   17.1593  -12.2013    0.0000 C   0  0  0  0  0  0  0  0  0  0  0  0
   16.4387  -12.6220    0.0000 C   0  0  0  0  0  0  0  0  0  0  0  0
 10  3  1  0
 11  3  1  0
 12  7  2  0
 13 12  1  0
 14  6  1  0
 15  8  2  0
 16  8  1  0
 17 11  1  0
 18 10  1  0
 19 10  1  0
 20 11  1  0
 21 12  1  0
 22 16  2  0
 23 15  1  0
 24 22  1  0
  9 13  2  0
 23 24  2  0
  2  1  1  0
  3  4  1  0
  4  5  1  0
  5  2  1  0
  6  1  2  0
  7  1  1  0
  2  8  1  1
  9  6  1  0
M  END

> <chembl_id>
CHEMBL1382

> <chembl_pref_name>
TOLTERODINE

$$$$

     RDKit          2D

 25 26  0  0  0  0  0  0  0  0999 V2000
    1.2990   -0.7500    0.0000 C   0  0  0  0  0  0  0  0  0  0  0  0
    1.2990    0.7500    0.0000 C   0  0  0  0  0  0  0  0  0  0  0  0
    0.0000    1.5000    0.0000 N   0  0  0  0  0  0  0  0  0  0  0  0
   -1.2990    0.7500    0.0000 C   0  0  0  0  0  0  0  0  0  0  0  0
   -1.2990   -0.7500    0.0000 C   0  0  0  0  0  0  0  0  0  0  0  0
    0.0000   -1.5000    0.0000 C   0  0  0  0  0  0  0  0  0  0  0  0
    0.5133   -2.9102    0.0000 C   0  0  0  0  0  0  0  0  0  0  0  0
   -0.4490   -4.0610    0.0000 C   0  0  0  0  0  0  0  0  0  0  0  0
    0.0662   -5.4697    0.0000 C   0  0  0  0  0  0  0  0  0  0  0  0
    1.5439   -5.7278    0.0000 C   0  0  0  0  0  0  0  0  0  0  0  0
    2.5062   -4.5772    0.0000 C   0  0  0  0  0  0  0  0  0  0  0  0
    1.9910   -3.1685    0.0000 C   0  0  0  0  0  0  0  0  0  0  0  0
    2.5973   -1.5031    0.0000 C   0  0  0  0  0  0  0  0  0  0  0  0
    2.5944   -2.7031    0.0000 O   0  0  0  0  0  0  0  0  0  0  0  0
    3.8990   -0.7562    0.0000 O   0  0  0  0  0  0  0  0  0  0  0  0
    4.9370   -1.3583    0.0000 C   0  0  0  0  0  0  0  0  0  0  0  0
   -1.7515   -3.3153    0.0000 N   0  0  0  0  0  0  0  0  0  0  0  0
   -2.7889   -3.9185    0.0000 O   0  0  0  0  0  0  0  0  0  0  0  0
   -1.7549   -2.3153    0.0000 O   0  0  0  0  0  0  0  0  0  0  0  0
    2.3383    1.3500    0.0000 C   0  0  0  0  0  0  0  0  0  0  0  0
   -2.3383    1.3500    0.0000 C   0  0  0  0  0  0  0  0  0  0  0  0
   -2.6003   -1.4978    0.0000 C   0  0  0  0  0  0  0  0  0  0  0  0
   -3.8990   -0.7455    0.0000 O   0  0  0  0  0  0  0  0  0  0  0  0
   -2.6021   -2.4978    0.0000 O   0  0  0  0  0  0  0  0  0  0  0  0
   -4.9395   -1.3434    0.0000 C   0  0  0  0  0  0  0  0  0  0  0  0
  6  7  1  0
  5  6  1  0
  1 13  1  0
 13 14  2  0
  1  2  2  0
 13 15  1  0
  7  8  2  0
 15 16  1  0
  1  6  1  0
  8  9  1  0
  2  3  1  0
 17 18  2  0
 17 19  1  0
  8 17  1  0
  9 10  2  0
  2 20  1  0
  3  4  1  0
  4 21  1  0
 10 11  1  0
  5 22  1  0
  4  5  2  0
 22 23  1  0
 11 12  2  0
 22 24  2  0
 12  7  1  0
 23 25  1  0
M  CHG  2  17   1  19  -1
M  END

> <chembl_id>
CHEMBL193

> <chembl_pref_name>
NIFEDIPINE

$$$$

     RDKit          2D

 34 38  0  0  0  0  0  0  0  0999 V2000
   -4.2045    0.9625    0.0000 C   0  0  0  0  0  0  0  0  0  0  0  0
   -4.2057    0.1350    0.0000 C   0  0  0  0  0  0  0  0  0  0  0  0
   -3.4882   -0.2780    0.0000 C   0  0  0  0  0  0  0  0  0  0  0  0
   -3.4902    1.3753    0.0000 C   0  0  0  0  0  0  0  0  0  0  0  0
   -2.7766    0.9666    0.0000 C   0  0  0  0  0  0  0  0  0  0  0  0
   -2.7763    0.1399    0.0000 C   0  0  0  0  0  0  0  0  0  0  0  0
   -1.9896   -0.1178    0.0000 N   0  0  0  0  0  0  0  0  0  0  0  0
   -1.5058    0.5537    0.0000 C   0  0  0  0  0  0  0  0  0  0  0  0
   -1.9908    1.2194    0.0000 N   0  0  0  0  0  0  0  0  0  0  0  0
   -1.5842    1.9354    0.0000 C   0  0  0  0  0  0  0  0  0  0  0  0
   -0.7592    1.9421    0.0000 C   0  0  0  0  0  0  0  0  0  0  0  0
   -0.3434    1.2259    0.0000 C   0  0  0  0  0  0  0  0  0  0  0  0
    0.4807    1.2323    0.0000 C   0  0  0  0  0  0  0  0  0  0  0  0
    0.8882    1.9490    0.0000 C   0  0  0  0  0  0  0  0  0  0  0  0
    0.4650    2.6653    0.0000 C   0  0  0  0  0  0  0  0  0  0  0  0
   -0.3576    2.6550    0.0000 C   0  0  0  0  0  0  0  0  0  0  0  0
    1.7131    1.9569    0.0000 F   0  0  0  0  0  0  0  0  0  0  0  0
   -0.6808    0.5545    0.0000 N   0  0  0  0  0  0  0  0  0  0  0  0
   -0.2675   -0.1621    0.0000 C   0  0  0  0  0  0  0  0  0  0  0  0
   -0.6814   -0.8761    0.0000 C   0  0  0  0  0  0  0  0  0  0  0  0
   -0.2720   -1.5905    0.0000 C   0  0  0  0  0  0  0  0  0  0  0  0
    0.5533   -1.5943    0.0000 N   0  0  0  0  0  0  0  0  0  0  0  0
    0.9676   -0.8769    0.0000 C   0  0  0  0  0  0  0  0  0  0  0  0
    0.5564   -0.1603    0.0000 C   0  0  0  0  0  0  0  0  0  0  0  0
    0.9636   -2.3082    0.0000 C   0  0  0  0  0  0  0  0  0  0  0  0
    1.7886   -2.3107    0.0000 C   0  0  0  0  0  0  0  0  0  0  0  0
    2.1989   -3.0246    0.0000 C   0  0  0  0  0  0  0  0  0  0  0  0
    1.7840   -3.7369    0.0000 C   0  0  0  0  0  0  0  0  0  0  0  0
    2.1935   -4.4502    0.0000 C   0  0  0  0  0  0  0  0  0  0  0  0
    3.0195   -4.4533    0.0000 C   0  0  0  0  0  0  0  0  0  0  0  0
    3.4341   -3.7364    0.0000 C   0  0  0  0  0  0  0  0  0  0  0  0
    3.0219   -3.0218    0.0000 C   0  0  0  0  0  0  0  0  0  0  0  0
    3.4308   -5.1712    0.0000 O   0  0  0  0  0  0  0  0  0  0  0  0
    4.2558   -5.1725    0.0000 C   0  0  0  0  0  0  0  0  0  0  0  0
 16 11  1  0
  6  7  1  0
 14 17  1  0
  7  8  2  0
  8 18  1  0
  8  9  1  0
 18 19  1  0
 19 20  1  0
  9  5  1  0
  4  1  1  0
  9 10  1  0
  5  6  1  0
 10 11  1  0
 19 24  1  0
 20 21  1  0
 21 22  1  0
 22 23  1  0
 23 24  1  0
 22 25  1  0
 11 12  2  0
 25 26  1  0
  2  3  1  0
 26 27  1  0
 12 13  1  0
 27 28  2  0
  3  6  2  0
 28 29  1  0
 13 14  2  0
 29 30  2  0
  1  2  2  0
 30 31  1  0
 14 15  1  0
 31 32  2  0
 32 27  1  0
  5  4  2  0
 30 33  1  0
 15 16  2  0
 33 34  1  0
M  END

> <chembl_id>
CHEMBL296419

> <chembl_pref_name>
ASTEMIZOLE

$$$$

     RDKit          2D

 17 17  0  0  0  0  0  0  0  0999 V2000
    4.6042   -7.0542    0.0000 C   0  0  0  0  0  0  0  0  0  0  0  0
    3.9792   -7.4042    0.0000 C   0  0  0  0  0  0  0  0  0  0  0  0
    4.6167   -6.3542    0.0000 O   0  0  0  0  0  0  0  0  0  0  0  0
    5.2042   -7.4292    0.0000 N   0  0  0  0  0  0  0  0  0  0  0  0
    3.3750   -7.0417    0.0000 C   0  0  0  0  0  0  0  0  0  0  0  0
    3.9667   -8.1167    0.0000 C   0  0  0  0  0  0  0  0  0  0  0  0
    2.7292   -8.0917    0.0000 C   0  0  0  0  0  0  0  0  0  0  0  0
    7.0667   -7.1042    0.0000 N   0  0  0  0  0  0  0  0  0  0  0  0
    2.1125   -8.4375    0.0000 N   0  0  0  0  0  0  0  0  0  0  0  0
    3.3417   -8.4625    0.0000 C   0  0  0  0  0  0  0  0  0  0  0  0
    2.7417   -7.3792    0.0000 C   0  0  0  0  0  0  0  0  0  0  0  0
    5.8292   -7.0875    0.0000 C   0  0  0  0  0  0  0  0  0  0  0  0
    6.4417   -7.4500    0.0000 C   0  0  0  0  0  0  0  0  0  0  0  0
    7.6792   -7.4792    0.0000 C   0  0  0  0  0  0  0  0  0  0  0  0
    7.0792   -6.3917    0.0000 C   0  0  0  0  0  0  0  0  0  0  0  0
    8.3042   -7.1292    0.0000 C   0  0  0  0  0  0  0  0  0  0  0  0
    7.7042   -6.0542    0.0000 C   0  0  0  0  0  0  0  0  0  0  0  0
  2  1  1  0
  3  1  2  0
  4  1  1  0
  5  2  1  0
  6  2  2  0
  7 10  2  0
  8 13  1  0
  9  7  1  0
 10  6  1  0
 11  5  2  0
 12  4  1  0
 13 12  1  0
 14  8  1  0
 15  8  1  0
 16 14  1  0
 17 15  1  0
  7 11  1  0
M  END

> <chembl_id>
CHEMBL640

> <chembl_pref_name>
PROCAINAMIDE

$$$$

     RDKit          2D

 12 13  0  0  1  0  0  0  0  0999 V2000
    4.1955    0.2934    0.0000 C   0  0  0  0  0  0  0  0  0  0  0  0
    3.9511   -0.8815    0.0000 N   0  0  0  0  0  0  0  0  0  0  0  0
    4.9531   -1.9978    0.0000 C   0  0  0  0  0  0  0  0  0  0  0  0
    4.2010   -3.2956    0.0000 C   0  0  0  0  0  0  0  0  0  0  0  0
    2.7343   -2.9815    0.0000 C   0  0  0  0  0  0  0  0  0  0  0  0
    2.5987   -1.5004    0.0000 C   0  0  0  0  0  0  0  0  0  0  0  0
    1.2990   -0.7500    0.0000 C   0  0  0  0  0  0  0  0  0  0  0  0
    1.2990    0.7500    0.0000 C   0  0  0  0  0  0  0  0  0  0  0  0
    0.0000    1.5000    0.0000 C   0  0  0  0  0  0  0  0  0  0  0  0
   -1.2990    0.7500    0.0000 C   0  0  0  0  0  0  0  0  0  0  0  0
   -1.2990   -0.7500    0.0000 N   0  0  0  0  0  0  0  0  0  0  0  0
    0.0000   -1.5000    0.0000 C   0  0  0  0  0  0  0  0  0  0  0  0
  1  2  1  0
  2  3  1  0
  3  4  1  0
  4  5  1  0
  5  6  1  0
  6  2  1  0
  6  7  1  1
  7  8  2  0
  8  9  1  0
  9 10  2  0
 10 11  1  0
 11 12  2  0
 12  7  1  0
M  END

> <chembl_id>
CHEMBL3

> <chembl_pref_name>
NICOTINE

$$$$

     RDKit          2D

 30 34  0  0  0  0  0  0  0  0999 V2000
    2.3383   -1.3500    0.0000 Cl  0  0  0  0  0  0  0  0  0  0  0  0
    1.2990   -0.7500    0.0000 C   0  0  0  0  0  0  0  0  0  0  0  0
    1.2990    0.7500    0.0000 C   0  0  0  0  0  0  0  0  0  0  0  0
    0.0000    1.5000    0.0000 C   0  0  0  0  0  0  0  0  0  0  0  0
   -1.2990    0.7500    0.0000 C   0  0  0  0  0  0  0  0  0  0  0  0
   -2.7248    1.2135    0.0000 N   0  0  0  0  0  0  0  0  0  0  0  0
   -3.1884    2.6408    0.0000 C   0  0  0  0  0  0  0  0  0  0  0  0
   -2.2738    3.8234    0.0000 C   0  0  0  0  0  0  0  0  0  0  0  0
   -2.8433    5.2111    0.0000 C   0  0  0  0  0  0  0  0  0  0  0  0
   -4.3298    5.4117    0.0000 N   0  0  0  0  0  0  0  0  0  0  0  0
   -4.9025    6.7990    0.0000 C   0  0  0  0  0  0  0  0  0  0  0  0
   -6.3901    6.9976    0.0000 C   0  0  0  0  0  0  0  0  0  0  0  0
   -6.9628    8.3849    0.0000 C   0  0  0  0  0  0  0  0  0  0  0  0
   -8.4505    8.5835    0.0000 N   0  0  0  0  0  0  0  0  0  0  0  0
   -9.4613    7.4925    0.0000 C   0  0  0  0  0  0  0  0  0  0  0  0
   -9.2355    6.3139    0.0000 O   0  0  0  0  0  0  0  0  0  0  0  0
  -10.8152    8.1382    0.0000 N   0  0  0  0  0  0  0  0  0  0  0  0
  -10.6194    9.6245    0.0000 C   0  0  0  0  0  0  0  0  0  0  0  0
  -11.5936   10.7650    0.0000 C   0  0  0  0  0  0  0  0  0  0  0  0
  -11.0930   12.1790    0.0000 C   0  0  0  0  0  0  0  0  0  0  0  0
   -9.6182   12.4525    0.0000 C   0  0  0  0  0  0  0  0  0  0  0  0
   -8.6439   11.3120    0.0000 C   0  0  0  0  0  0  0  0  0  0  0  0
   -9.1445    9.8980    0.0000 C   0  0  0  0  0  0  0  0  0  0  0  0
   -5.2468    4.2247    0.0000 C   0  0  0  0  0  0  0  0  0  0  0  0
   -4.6773    2.8370    0.0000 C   0  0  0  0  0  0  0  0  0  0  0  0
   -3.6065    0.0000    0.0000 C   0  0  0  0  0  0  0  0  0  0  0  0
   -4.8065    0.0000    0.0000 O   0  0  0  0  0  0  0  0  0  0  0  0
   -2.7248   -1.2135    0.0000 N   0  0  0  0  0  0  0  0  0  0  0  0
   -1.2990   -0.7500    0.0000 C   0  0  0  0  0  0  0  0  0  0  0  0
    0.0000   -1.5000    0.0000 C   0  0  0  0  0  0  0  0  0  0  0  0
  1  2  1  0
  2  3  2  0
  3  4  1  0
  4  5  2  0
  5  6  1  0
  6  7  1  0
  7  8  1  0
  8  9  1  0
  9 10  1  0
 10 11  1  0
 11 12  1  0
 12 13  1  0
 13 14  1  0
 14 15  1  0
 15 16  2  0
 15 17  1  0
 17 18  1  0
 18 19  2  0
 19 20  1  0
 20 21  2  0
 21 22  1  0
 22 23  2  0
 23 14  1  0
 23 18  1  0
 10 24  1  0
 24 25  1  0
 25  7  1  0
  6 26  1  0
 26 27  2  0
 26 28  1  0
 28 29  1  0
 29  5  1  0
 29 30  2  0
 30  2  1  0
M  END

> <chembl_id>
CHEMBL219916

> <chembl_pref_name>
DOMPERIDONE

$$$$

     RDKit          2D

 52 54  0  0  1  0  0  0  0  0999 V2000
   -1.2948    5.6332    0.0000 C   0  0  0  0  0  0  0  0  0  0  0  0
    2.6351    2.1015    0.0000 C   0  0  0  0  0  0  0  0  0  0  0  0
    3.2860   -0.7500    0.0000 C   0  0  0  0  0  0  0  0  0  0  0  0
    0.0000   -3.3705    0.0000 C   0  0  0  0  0  0  0  0  0  0  0  0
    3.2860    0.7500    0.0000 C   0  0  0  0  0  0  0  0  0  0  0  0
   -2.5944    4.8840    0.0000 C   0  0  0  0  0  0  0  0  0  0  0  0
    0.0000    3.3705    0.0000 C   0  0  0  0  0  0  0  0  0  0  0  0
    1.4624    3.0367    0.0000 C   0  0  0  0  0  0  0  0  0  0  0  0
   -2.6351   -2.1015    0.0000 C   0  0  0  0  0  0  0  0  0  0  0  0
    2.6351   -2.1015    0.0000 O   0  0  0  0  0  0  0  0  0  0  0  0
   -1.4624   -3.0367    0.0000 C   0  0  0  0  0  0  0  0  0  0  0  0
   -3.2860   -0.7500    0.0000 C   0  0  0  0  0  0  0  0  0  0  0  0
    0.0030    4.8795    0.0000 O   0  0  0  0  0  0  0  0  0  0  0  0
    4.5283    6.9502    0.0000 C   0  0  0  0  0  0  0  0  0  0  0  0
   -3.8930    5.6347    0.0000 C   0  0  0  0  0  0  0  0  0  0  0  0
   -1.4624    3.0367    0.0000 C   0  0  0  0  0  0  0  0  0  0  0  0
    3.5874    4.5284    0.0000 C   0  0  0  0  0  0  0  0  0  0  0  0
    4.7569    5.4677    0.0000 C   0  0  0  0  0  0  0  0  0  0  0  0
   -1.2941    7.1333    0.0000 O   0  0  0  0  0  0  0  0  0  0  0  0
    2.1892    5.0718    0.0000 O   0  0  0  0  0  0  0  0  0  0  0  0
    1.4624   -3.0367    0.0000 C   0  0  0  0  0  0  0  0  0  0  0  0
    3.1302    7.4934    0.0000 C   0  0  0  0  0  0  0  0  0  0  0  0
    3.8131    3.0446    0.0000 O   0  0  0  0  0  0  0  0  0  0  0  0
    1.9606    6.5542    0.0000 C   0  0  0  0  0  0  0  0  0  0  0  0
   -3.2860    0.7500    0.0000 C   0  0  0  0  0  0  0  0  0  0  0  0
   -2.6352    2.1014    0.0000 C   0  0  0  0  0  0  0  0  0  0  0  0
   -3.8922    7.1347    0.0000 C   0  0  0  0  0  0  0  0  0  0  0  0
   -5.1947    4.8877    0.0000 N   0  0  0  0  0  0  0  0  0  0  0  0
    4.4559   -1.0170    0.0000 O   0  0  0  0  0  0  0  0  0  0  0  0
   -2.5927    7.8840    0.0000 C   0  0  0  0  0  0  0  0  0  0  0  0
   -4.4559   -1.0170    0.0000 O   0  0  0  0  0  0  0  0  0  0  0  0
    1.0687   -3.9163    0.0000 O   0  0  0  0  0  0  0  0  0  0  0  0
   -2.5951    3.6840    0.0000 O   0  0  0  0  0  0  0  0  0  0  0  0
   -1.9830   -4.1179    0.0000 O   0  0  0  0  0  0  0  0  0  0  0  0
    4.2668    8.4073    0.0000 O   0  0  0  0  0  0  0  0  0  0  0  0
   -0.5786    4.1974    0.0000 O   0  0  0  0  0  0  0  0  0  0  0  0
    2.9473    8.6794    0.0000 O   0  0  0  0  0  0  0  0  0  0  0  0
   -1.0687   -3.9163    0.0000 C   0  0  0  0  0  0  0  0  0  0  0  0
    4.4559    1.0170    0.0000 C   0  0  0  0  0  0  0  0  0  0  0  0
    1.9830    4.1179    0.0000 C   0  0  0  0  0  0  0  0  0  0  0  0
   -3.5733   -2.8497    0.0000 C   0  0  0  0  0  0  0  0  0  0  0  0
    5.6359    6.4883    0.0000 C   0  0  0  0  0  0  0  0  0  0  0  0
   -2.6621    3.0636    0.0000 C   0  0  0  0  0  0  0  0  0  0  0  0
    2.1198   -4.3949    0.0000 C   0  0  0  0  0  0  0  0  0  0  0  0
    0.8421    6.9889    0.0000 C   0  0  0  0  0  0  0  0  0  0  0  0
   -4.4559    1.0170    0.0000 C   0  0  0  0  0  0  0  0  0  0  0  0
   -6.2328    5.4898    0.0000 C   0  0  0  0  0  0  0  0  0  0  0  0
   -5.1975    3.6877    0.0000 C   0  0  0  0  0  0  0  0  0  0  0  0
   -2.5920    9.0840    0.0000 C   0  0  0  0  0  0  0  0  0  0  0  0
    0.6181    4.1083    0.0000 C   0  0  0  0  0  0  0  0  0  0  0  0
    5.1640    9.2042    0.0000 C   0  0  0  0  0  0  0  0  0  0  0  0
    3.3166   -4.4830    0.0000 C   0  0  0  0  0  0  0  0  0  0  0  0
  2  8  1  0
  3  5  1  0
  4 11  1  0
  5  2  1  0
  6  1  1  0
  7 13  1  6
  8  7  1  0
  9 12  1  0
 10  3  1  0
 11  9  1  0
 12 25  1  0
  1 13  1  1
 14 18  1  0
 15  6  1  0
 16  7  1  0
 17 23  1  6
 18 17  1  0
 19  1  1  0
 20 17  1  0
 21 10  1  0
 22 24  1  0
  2 23  1  6
 24 20  1  0
 25 26  1  0
 26 16  1  0
 27 30  1  0
 15 28  1  1
 29  3  2  0
 30 19  1  0
 31 12  2  0
  4 32  1  1
  6 33  1  6
 11 34  1  6
 14 35  1  0
 16 36  1  0
 22 37  1  6
 38  4  1  0
  5 39  1  1
  8 40  1  1
  9 41  1  1
 14 42  1  1
 16 43  1  6
 21 44  1  6
 24 45  1  1
 25 46  1  6
 47 28  1  0
 48 28  1  0
 30 49  1  1
 50 36  1  0
 51 35  1  0
 52 44  1  0
 27 15  1  0
 21  4  1  0
 22 14  1  0
M  END

> <chembl_id>
CHEMBL1741

> <chembl_pref_name>
CLARITHROMYCIN

$$$$

     RDKit          2D

 25 28  0  0  0  0  0  0  0  0999 V2000
    0.0000    1.5002    0.0000 N   0  0  0  0  0  0  0  0  0  0  0  0
   -1.2989    0.7501    0.0000 C   0  0  0  0  0  0  0  0  0  0  0  0
    0.0000   -1.5002    0.0000 S   0  0  0  0  0  0  0  0  0  0  0  0
    1.2806    0.7501    0.0000 C   0  0  0  0  0  0  0  0  0  0  0  0
   -1.2989   -0.7501    0.0000 C   0  0  0  0  0  0  0  0  0  0  0  0
    1.2806   -0.7501    0.0000 C   0  0  0  0  0  0  0  0  0  0  0  0
    0.0120    3.0009    0.0000 C   0  0  0  0  0  0  0  0  0  0  0  0
    2.6328    5.9848    0.0000 N   0  0  0  0  0  0  0  0  0  0  0  0
   -2.5978    1.5002    0.0000 C   0  0  0  0  0  0  0  0  0  0  0  0
    1.3173    3.7417    0.0000 C   0  0  0  0  0  0  0  0  0  0  0  0
    1.3293    5.2425    0.0000 C   0  0  0  0  0  0  0  0  0  0  0  0
   -2.5978   -1.5002    0.0000 C   0  0  0  0  0  0  0  0  0  0  0  0
   -3.8968    0.7501    0.0000 C   0  0  0  0  0  0  0  0  0  0  0  0
   -5.1981    1.4978    0.0000 S   0  0  0  0  0  0  0  0  0  0  0  0
   -3.8968   -0.7501    0.0000 C   0  0  0  0  0  0  0  0  0  0  0  0
    3.6685    5.3785    0.0000 C   0  0  0  0  0  0  0  0  0  0  0  0
    2.6419    7.4847    0.0000 C   0  0  0  0  0  0  0  0  0  0  0  0
    2.5978    1.5002    0.0000 C   0  0  0  0  0  0  0  0  0  0  0  0
    2.5978   -1.5002    0.0000 C   0  0  0  0  0  0  0  0  0  0  0  0
    0.0348    6.0004    0.0000 C   0  0  0  0  0  0  0  0  0  0  0  0
   -6.2364    0.8963    0.0000 C   0  0  0  0  0  0  0  0  0  0  0  0
    1.3473    8.2425    0.0000 C   0  0  0  0  0  0  0  0  0  0  0  0
    3.8968    0.7501    0.0000 C   0  0  0  0  0  0  0  0  0  0  0  0
    3.8968   -0.7501    0.0000 C   0  0  0  0  0  0  0  0  0  0  0  0
    0.0438    7.5003    0.0000 C   0  0  0  0  0  0  0  0  0  0  0  0
  2  1  1  0
  3  6  1  0
  4  1  1  0
  5  2  1  0
  6  4  2  0
  7  1  1  0
  8 11  1  0
  9  2  2  0
 10  7  1  0
 11 10  1  0
 12  5  2  0
 13  9  1  0
 14 13  1  0
 15 13  2  0
 16  8  1  0
 17  8  1  0
 18  4  1  0
 19  6  1  0
 20 11  1  0
 21 14  1  0
 22 25  1  0
 23 18  2  0
 24 23  1  0
 25 20  1  0
  3  5  1  0
 24 19  2  0
 15 12  1  0
 22 17  1  0
M  END

> <chembl_id>
CHEMBL479

> <chembl_pref_name>
THIORIDAZINE

$$$$

     RDKit          2D

 29 30  0  0  0  0  0  0  0  0999 V2000
    3.6042  -11.7167    0.0000 S   0  0  0  0  0  0  0  0  0  0  0  0
   -5.6708  -16.2792    0.0000 S   0  0  0  0  0  0  0  0  0  0  0  0
    3.6042  -12.5417    0.0000 N   0  0  0  0  0  0  0  0  0  0  0  0
   -4.9583  -16.6917    0.0000 N   0  0  0  0  0  0  0  0  0  0  0  0
    2.7792  -11.7167    0.0000 O   0  0  0  0  0  0  0  0  0  0  0  0
   -5.2583  -15.5625    0.0000 O   0  0  0  0  0  0  0  0  0  0  0  0
   -6.0792  -16.9917    0.0000 O   0  0  0  0  0  0  0  0  0  0  0  0
    4.4292  -11.7125    0.0000 O   0  0  0  0  0  0  0  0  0  0  0  0
    2.8917  -12.9542    0.0000 C   0  0  0  0  0  0  0  0  0  0  0  0
   -4.2458  -16.2750    0.0000 C   0  0  0  0  0  0  0  0  0  0  0  0
    0.0417  -15.4375    0.0000 N   0  0  0  0  0  0  0  0  0  0  0  0
    3.6042  -10.8917    0.0000 C   0  0  0  0  0  0  0  0  0  0  0  0
   -6.3917  -15.8667    0.0000 C   0  0  0  0  0  0  0  0  0  0  0  0
    1.4667  -13.7792    0.0000 C   0  0  0  0  0  0  0  0  0  0  0  0
   -2.8125  -15.4417    0.0000 C   0  0  0  0  0  0  0  0  0  0  0  0
    0.7542  -15.0250    0.0000 C   0  0  0  0  0  0  0  0  0  0  0  0
    0.7542  -14.2000    0.0000 C   0  0  0  0  0  0  0  0  0  0  0  0
   -4.2458  -15.4500    0.0000 C   0  0  0  0  0  0  0  0  0  0  0  0
    2.1792  -12.5417    0.0000 C   0  0  0  0  0  0  0  0  0  0  0  0
   -3.5250  -16.6875    0.0000 C   0  0  0  0  0  0  0  0  0  0  0  0
    2.8917  -13.7792    0.0000 C   0  0  0  0  0  0  0  0  0  0  0  0
    2.1792  -14.1917    0.0000 C   0  0  0  0  0  0  0  0  0  0  0  0
    1.4667  -12.9542    0.0000 C   0  0  0  0  0  0  0  0  0  0  0  0
   -2.8125  -16.2667    0.0000 C   0  0  0  0  0  0  0  0  0  0  0  0
   -3.5333  -15.0375    0.0000 C   0  0  0  0  0  0  0  0  0  0  0  0
   -2.1000  -15.0292    0.0000 O   0  0  0  0  0  0  0  0  0  0  0  0
   -1.3833  -15.4417    0.0000 C   0  0  0  0  0  0  0  0  0  0  0  0
   -0.6708  -15.0292    0.0000 C   0  0  0  0  0  0  0  0  0  0  0  0
    0.0417  -16.2625    0.0000 C   0  0  0  0  0  0  0  0  0  0  0  0
  2  4  1  0
  3  1  1  0
  4 10  1  0
  5  1  2  0
  6  2  2  0
  7  2  2  0
  8  1  2  0
  9  3  1  0
 10 18  1  0
 11 16  1  0
 12  1  1  0
 13  2  1  0
 14 22  2  0
 15 26  1  0
 16 17  1  0
 17 14  1  0
 18 25  2  0
 19  9  1  0
 20 24  1  0
 21  9  2  0
 22 21  1  0
 23 19  2  0
 24 15  2  0
 25 15  1  0
 26 27  1  0
 27 28  1  0
 28 11  1  0
 29 11  1  0
 14 23  1  0
 10 20  2  0
M  END

> <chembl_id>
CHEMBL473

> <chembl_pref_name>
DOFETILIDE

$$$$

     RDKit          2D

 35 38  0  0  0  0  0  0  0  0999 V2000
   10.1292   -5.8000    0.0000 C   0  0  0  0  0  0  0  0  0  0  0  0
   12.2667   -7.0375    0.0000 N   0  0  0  0  0  0  0  0  0  0  0  0
   17.9792   -8.6875    0.0000 C   0  0  0  0  0  0  0  0  0  0  0  0
   17.2667   -8.2750    0.0000 C   0  0  0  0  0  0  0  0  0  0  0  0
   10.8458   -6.2125    0.0000 C   0  0  0  0  0  0  0  0  0  0  0  0
   15.8417   -7.4500    0.0000 C   0  0  0  0  0  0  0  0  0  0  0  0
    9.7167   -6.5125    0.0000 C   0  0  0  0  0  0  0  0  0  0  0  0
    9.4083   -5.3875    0.0000 C   0  0  0  0  0  0  0  0  0  0  0  0
   17.2583   -7.4500    0.0000 C   0  0  0  0  0  0  0  0  0  0  0  0
   16.5458   -8.6875    0.0000 C   0  0  0  0  0  0  0  0  0  0  0  0
   16.5458   -7.0375    0.0000 C   0  0  0  0  0  0  0  0  0  0  0  0
   15.8333   -8.2750    0.0000 C   0  0  0  0  0  0  0  0  0  0  0  0
   10.8458   -7.0375    0.0000 C   0  0  0  0  0  0  0  0  0  0  0  0
   11.5542   -5.7958    0.0000 C   0  0  0  0  0  0  0  0  0  0  0  0
   12.2667   -6.2125    0.0000 C   0  0  0  0  0  0  0  0  0  0  0  0
   11.5542   -7.4458    0.0000 C   0  0  0  0  0  0  0  0  0  0  0  0
   10.5417   -5.0875    0.0000 O   0  0  0  0  0  0  0  0  0  0  0  0
   15.1208   -7.0375    0.0000 C   0  0  0  0  0  0  0  0  0  0  0  0
   12.9833   -7.4500    0.0000 C   0  0  0  0  0  0  0  0  0  0  0  0
   15.1208   -6.2125    0.0000 O   0  0  0  0  0  0  0  0  0  0  0  0
   13.6958   -7.0375    0.0000 C   0  0  0  0  0  0  0  0  0  0  0  0
   18.6917   -9.1000    0.0000 C   0  0  0  0  0  0  0  0  0  0  0  0
   17.5667   -9.4083    0.0000 C   0  0  0  0  0  0  0  0  0  0  0  0
   18.3958   -7.9750    0.0000 C   0  0  0  0  0  0  0  0  0  0  0  0
   14.4083   -7.4500    0.0000 C   0  0  0  0  0  0  0  0  0  0  0  0
    8.6958   -5.8000    0.0000 C   0  0  0  0  0  0  0  0  0  0  0  0
    9.4083   -4.5500    0.0000 C   0  0  0  0  0  0  0  0  0  0  0  0
    8.8917   -6.5125    0.0000 C   0  0  0  0  0  0  0  0  0  0  0  0
   10.1333   -7.2250    0.0000 C   0  0  0  0  0  0  0  0  0  0  0  0
    7.9708   -5.3833    0.0000 C   0  0  0  0  0  0  0  0  0  0  0  0
    9.7167   -7.9458    0.0000 C   0  0  0  0  0  0  0  0  0  0  0  0
    8.4792   -7.2250    0.0000 C   0  0  0  0  0  0  0  0  0  0  0  0
    8.6958   -4.1375    0.0000 C   0  0  0  0  0  0  0  0  0  0  0  0
    8.8833   -7.9458    0.0000 C   0  0  0  0  0  0  0  0  0  0  0  0
    7.9792   -4.5500    0.0000 C   0  0  0  0  0  0  0  0  0  0  0  0
  2 15  1  0
  3  4  1  0
  4 10  2  0
  5  1  1  0
  6 18  1  0
  7  1  1  0
  8  1  1  0
  9 11  2  0
 10 12  1  0
 11  6  1  0
 12  6  2  0
 13  5  1  0
 14  5  1  0
 15 14  1  0
 16 13  1  0
 17  1  1  0
 18 25  1  0
 19  2  1  0
 20 18  1  0
 21 19  1  0
 22  3  1  0
 23  3  1  0
 24  3  1  0
 25 21  1  0
 26  8  1  0
 27  8  2  0
 28  7  2  0
 29  7  1  0
 30 26  2  0
 31 29  2  0
 32 28  1  0
 33 27  1  0
 34 31  1  0
 35 33  2  0
 16  2  1  0
 30 35  1  0
 32 34  2  0
  9  4  1  0
M  END

> <chembl_id>
CHEMBL17157

> <chembl_pref_name>
TERFENADINE

$$$$

     RDKit          2D

 26 29  0  0  0  0  0  0  0  0999 V2000
    0.0000    1.5002    0.0000 N   0  0  0  0  0  0  0  0  0  0  0  0
   -1.2989    0.7501    0.0000 C   0  0  0  0  0  0  0  0  0  0  0  0
    0.0000   -1.5002    0.0000 S   0  0  0  0  0  0  0  0  0  0  0  0
   -2.5978    1.5002    0.0000 C   0  0  0  0  0  0  0  0  0  0  0  0
    1.2806    0.7501    0.0000 C   0  0  0  0  0  0  0  0  0  0  0  0
   -1.2989   -0.7501    0.0000 C   0  0  0  0  0  0  0  0  0  0  0  0
    1.2806   -0.7501    0.0000 C   0  0  0  0  0  0  0  0  0  0  0  0
    0.0120    3.0009    0.0000 C   0  0  0  0  0  0  0  0  0  0  0  0
   -3.8968    0.7501    0.0000 C   0  0  0  0  0  0  0  0  0  0  0  0
   -5.1981    1.4978    0.0000 S   0  0  0  0  0  0  0  0  0  0  0  0
    2.6328    5.9848    0.0000 N   0  0  0  0  0  0  0  0  0  0  0  0
    1.3173    3.7417    0.0000 C   0  0  0  0  0  0  0  0  0  0  0  0
    1.3293    5.2425    0.0000 C   0  0  0  0  0  0  0  0  0  0  0  0
   -2.5978   -1.5002    0.0000 C   0  0  0  0  0  0  0  0  0  0  0  0
   -6.2364    0.8963    0.0000 O   0  0  0  0  0  0  0  0  0  0  0  0
   -3.8968   -0.7501    0.0000 C   0  0  0  0  0  0  0  0  0  0  0  0
    3.6685    5.3785    0.0000 C   0  0  0  0  0  0  0  0  0  0  0  0
    2.6419    7.4847    0.0000 C   0  0  0  0  0  0  0  0  0  0  0  0
    2.5978    1.5002    0.0000 C   0  0  0  0  0  0  0  0  0  0  0  0
   -5.2002    2.6978    0.0000 C   0  0  0  0  0  0  0  0  0  0  0  0
    2.5978   -1.5002    0.0000 C   0  0  0  0  0  0  0  0  0  0  0  0
    0.0348    6.0004    0.0000 C   0  0  0  0  0  0  0  0  0  0  0  0
    1.3473    8.2425    0.0000 C   0  0  0  0  0  0  0  0  0  0  0  0
    3.8968    0.7501    0.0000 C   0  0  0  0  0  0  0  0  0  0  0  0
    3.8968   -0.7501    0.0000 C   0  0  0  0  0  0  0  0  0  0  0  0
    0.0438    7.5003    0.0000 C   0  0  0  0  0  0  0  0  0  0  0  0
  2  1  1  0
  3  7  1  0
  4  2  1  0
  5  1  1  0
  6  2  2  0
  7  5  2  0
  8  1  1  0
  9  4  2  0
 10  9  1  0
 11 13  1  0
 12  8  1  0
 13 12  1  0
 14  6  1  0
 15 10  1  0
 16 14  2  0
 17 11  1  0
 18 11  1  0
 19  5  1  0
 20 10  1  0
 21  7  1  0
 22 13  1  0
 23 26  1  0
 24 19  2  0
 25 24  1  0
 26 22  1  0
  3  6  1  0
 25 21  2  0
 16  9  1  0
 23 18  1  0
M  CHG  2  10   1  15  -1
M  END

> <chembl_id>
CHEMBL1088

> <chembl_pref_name>
MESORIDAZINE

$$$$

     RDKit          2D

 28 31  0  0  0  0  0  0  0  0999 V2000
    0.7125   -1.0292    0.0000 C   0  0  0  0  0  0  0  0  0  0  0  0
    1.4250    0.2083    0.0000 N   0  0  0  0  0  0  0  0  0  0  0  0
    2.1417   -1.0292    0.0000 C   0  0  0  0  0  0  0  0  0  0  0  0
    0.7125   -0.2042    0.0000 C   0  0  0  0  0  0  0  0  0  0  0  0
    1.4250   -1.4417    0.0000 C   0  0  0  0  0  0  0  0  0  0  0  0
   -0.7167   -0.2042    0.0000 C   0  0  0  0  0  0  0  0  0  0  0  0
    0.0000    0.2083    0.0000 C   0  0  0  0  0  0  0  0  0  0  0  0
   -0.7167   -1.0292    0.0000 C   0  0  0  0  0  0  0  0  0  0  0  0
    2.1417   -0.2042    0.0000 C   0  0  0  0  0  0  0  0  0  0  0  0
   -1.4292    0.2083    0.0000 N   0  0  0  0  0  0  0  0  0  0  0  0
    0.0000   -1.4417    0.0000 C   0  0  0  0  0  0  0  0  0  0  0  0
    1.4250    1.0333    0.0000 C   0  0  0  0  0  0  0  0  0  0  0  0
    2.8542   -1.4417    0.0000 C   0  0  0  0  0  0  0  0  0  0  0  0
    1.0125    1.7458    0.0000 C   0  0  0  0  0  0  0  0  0  0  0  0
    1.8375    1.7458    0.0000 C   0  0  0  0  0  0  0  0  0  0  0  0
   -1.4292    1.0333    0.0000 C   0  0  0  0  0  0  0  0  0  0  0  0
   -2.1458   -0.2042    0.0000 C   0  0  0  0  0  0  0  0  0  0  0  0
    1.4250   -2.2667    0.0000 O   0  0  0  0  0  0  0  0  0  0  0  0
   -2.8583    0.2083    0.0000 C   0  0  0  0  0  0  0  0  0  0  0  0
   -2.1458    1.4458    0.0000 C   0  0  0  0  0  0  0  0  0  0  0  0
    0.0000    1.0333    0.0000 F   0  0  0  0  0  0  0  0  0  0  0  0
   -1.4292   -1.4417    0.0000 F   0  0  0  0  0  0  0  0  0  0  0  0
    2.8542   -2.2667    0.0000 O   0  0  0  0  0  0  0  0  0  0  0  0
    0.0000   -2.2667    0.0000 N   0  0  0  0  0  0  0  0  0  0  0  0
    3.5708   -1.0292    0.0000 O   0  0  0  0  0  0  0  0  0  0  0  0
   -2.1458    2.2708    0.0000 C   0  0  0  0  0  0  0  0  0  0  0  0
   -3.5750   -0.2042    0.0000 C   0  0  0  0  0  0  0  0  0  0  0  0
   -2.8583    1.0333    0.0000 N   0  0  0  0  0  0  0  0  0  0  0  0
  2  4  1  0
  3  5  1  0
  4  1  2  0
  5  1  1  0
  6  7  2  0
  7  4  1  0
  8 11  2  0
  9  2  1  0
 10  6  1  0
 11  1  1  0
 12  2  1  0
 28 20  1  0
 13  3  1  0
 14 12  1  0
 15 12  1  0
 16 10  1  0
 17 10  1  0
 18  5  2  0
 19 17  1  0
 20 16  1  0
 21  7  1  0
 22  8  1  0
 23 13  2  0
 24 11  1  0
 25 13  1  0
 20 26  1  1
 19 27  1  1
  6  8  1  0
  3  9  2  0
 15 14  1  0
 28 19  1  0
M  END

> <chembl_id>
CHEMBL850

> <chembl_pref_name>
SPARFLOXACIN

$$$$

     RDKit          2D

 19 20  0  0  0  0  0  0  0  0999 V2000
    5.1887   -7.2113    0.0000 C   0  0  0  0  0  0  0  0  0  0  0  0
    5.1901   -6.0113    0.0000 N   0  0  0  0  0  0  0  0  0  0  0  0
    6.2302   -5.4128    0.0000 C   0  0  0  0  0  0  0  0  0  0  0  0
    3.8917   -5.2586    0.0000 C   0  0  0  0  0  0  0  0  0  0  0  0
    3.8934   -3.7577    0.0000 C   0  0  0  0  0  0  0  0  0  0  0  0
    2.5949   -3.0050    0.0000 O   0  0  0  0  0  0  0  0  0  0  0  0
    2.5966   -1.5042    0.0000 C   0  0  0  0  0  0  0  0  0  0  0  0
    1.2990   -0.7500    0.0000 C   0  0  0  0  0  0  0  0  0  0  0  0
    1.2990    0.7500    0.0000 C   0  0  0  0  0  0  0  0  0  0  0  0
    0.0000    1.5000    0.0000 C   0  0  0  0  0  0  0  0  0  0  0  0
   -1.2990    0.7500    0.0000 C   0  0  0  0  0  0  0  0  0  0  0  0
   -1.2990   -0.7500    0.0000 C   0  0  0  0  0  0  0  0  0  0  0  0
    0.0000   -1.5000    0.0000 C   0  0  0  0  0  0  0  0  0  0  0  0
    3.8990   -0.7582    0.0000 C   0  0  0  0  0  0  0  0  0  0  0  0
    3.9042    0.7419    0.0000 C   0  0  0  0  0  0  0  0  0  0  0  0
    5.2058    1.4875    0.0000 C   0  0  0  0  0  0  0  0  0  0  0  0
    6.5023    0.7331    0.0000 C   0  0  0  0  0  0  0  0  0  0  0  0
    6.4972   -0.7669    0.0000 C   0  0  0  0  0  0  0  0  0  0  0  0
    5.1956   -1.5125    0.0000 C   0  0  0  0  0  0  0  0  0  0  0  0
  1  2  1  0
  2  3  1  0
  2  4  1  0
  4  5  1  0
  5  6  1  0
  6  7  1  0
  7  8  1  0
  8  9  2  0
  9 10  1  0
 10 11  2  0
 11 12  1  0
 12 13  2  0
 13  8  1  0
  7 14  1  0
 14 15  2  0
 15 16  1  0
 16 17  2  0
 17 18  1  0
 18 19  2  0
 19 14  1  0
M  END

> <chembl_id>
CHEMBL657

> <chembl_pref_name>
DIPHENHYDRAMINE

$$$$

     RDKit          2D

 27 29  0  0  0  0  0  0  0  0999 V2000
   -0.7250   -0.8625    0.0000 N   0  0  0  0  0  0  0  0  0  0  0  0
    0.5000   -0.1500    0.0000 N   0  0  0  0  0  0  0  0  0  0  0  0
    0.5000   -0.8542    0.0000 C   0  0  0  0  0  0  0  0  0  0  0  0
   -0.1125   -1.2167    0.0000 C   0  0  0  0  0  0  0  0  0  0  0  0
   -0.7333   -0.1542    0.0000 C   0  0  0  0  0  0  0  0  0  0  0  0
   -1.3375   -1.2167    0.0000 C   0  0  0  0  0  0  0  0  0  0  0  0
    1.7292   -0.8542    0.0000 O   0  0  0  0  0  0  0  0  0  0  0  0
   -1.3458    0.1958    0.0000 C   0  0  0  0  0  0  0  0  0  0  0  0
    1.1167   -1.2125    0.0000 C   0  0  0  0  0  0  0  0  0  0  0  0
   -0.0750    0.2625    0.0000 C   0  0  0  0  0  0  0  0  0  0  0  0
    1.0667    0.2708    0.0000 C   0  0  0  0  0  0  0  0  0  0  0  0
   -1.3375   -1.9292    0.0000 C   0  0  0  0  0  0  0  0  0  0  0  0
   -1.9500   -0.8667    0.0000 C   0  0  0  0  0  0  0  0  0  0  0  0
    2.3417   -1.2042    0.0000 C   0  0  0  0  0  0  0  0  0  0  0  0
    2.9542   -0.8500    0.0000 C   0  0  0  0  0  0  0  0  0  0  0  0
   -1.3458    0.9083    0.0000 C   0  0  0  0  0  0  0  0  0  0  0  0
   -1.9500   -0.1542    0.0000 C   0  0  0  0  0  0  0  0  0  0  0  0
    0.1417    0.9375    0.0000 C   0  0  0  0  0  0  0  0  0  0  0  0
    0.8500    0.9375    0.0000 C   0  0  0  0  0  0  0  0  0  0  0  0
    2.9500   -0.1417    0.0000 C   0  0  0  0  0  0  0  0  0  0  0  0
    3.5667   -1.2042    0.0000 C   0  0  0  0  0  0  0  0  0  0  0  0
   -1.9500   -2.2875    0.0000 C   0  0  0  0  0  0  0  0  0  0  0  0
   -2.5625   -1.2250    0.0000 C   0  0  0  0  0  0  0  0  0  0  0  0
   -2.5708    0.1958    0.0000 C   0  0  0  0  0  0  0  0  0  0  0  0
   -1.9583    1.2583    0.0000 C   0  0  0  0  0  0  0  0  0  0  0  0
   -2.5625   -1.9292    0.0000 C   0  0  0  0  0  0  0  0  0  0  0  0
   -2.5708    0.9000    0.0000 C   0  0  0  0  0  0  0  0  0  0  0  0
  2  3  1  0
  3  4  1  0
  4  1  1  0
  5  1  1  0
  6  1  1  0
  7  9  1  0
  8  5  1  0
  9  3  1  0
 10  2  1  0
 11  2  1  0
 12  6  1  0
 13  6  2  0
 14  7  1  0
 15 14  1  0
 16  8  2  0
 17  8  1  0
 18 10  1  0
 19 11  1  0
 20 15  1  0
 21 15  1  0
 22 12  2  0
 23 13  1  0
 24 17  2  0
 25 16  1  0
 26 23  2  0
 27 24  1  0
 26 22  1  0
 27 25  2  0
 18 19  1  0
M  END

> <chembl_id>
CHEMBL1008

> <chembl_pref_name>
BEPRIDIL

$$$$

     RDKit          2D

 21 25  0  0  1  0  0  0  0  0999 V2000
    4.3243   -0.5038    0.0000 C   0  0  0  0  0  0  0  0  0  0  0  0
    3.2622   -1.0625    0.0000 N   0  0  0  0  0  0  0  0  0  0  0  0
    3.2622   -1.9005    0.0000 C   0  0  0  0  0  0  0  0  0  0  0  0
    0.0000   -1.9005    0.0000 C   0  0  0  0  0  0  0  0  0  0  0  0
    0.0000   -0.4040    0.0000 C   0  0  0  0  0  0  0  0  0  0  0  0
   -1.3618   -1.1223    0.0000 C   0  0  0  0  0  0  0  0  0  0  0  0
   -2.5589    0.2394    0.0000 O   0  0  0  0  0  0  0  0  0  0  0  0
   -1.3618    1.6760    0.0000 C   0  0  0  0  0  0  0  0  0  0  0  0
   -1.3618    3.0827    0.0000 C   0  0  0  0  0  0  0  0  0  0  0  0
   -2.3839    3.7113    0.0000 O   0  0  0  0  0  0  0  0  0  0  0  0
    0.0000    3.7710    0.0000 C   0  0  0  0  0  0  0  0  0  0  0  0
    1.0625    3.0827    0.0000 C   0  0  0  0  0  0  0  0  0  0  0  0
    1.0625    1.6760    0.0000 C   0  0  0  0  0  0  0  0  0  0  0  0
    2.3045    0.9727    0.0000 C   0  0  0  0  0  0  0  0  0  0  0  0
    2.3045   -0.4040    0.0000 C   0  0  0  0  0  0  0  0  0  0  0  0
    1.0774   -1.1373    0.0000 C   0  0  0  0  0  0  0  0  0  0  0  0
    1.0774   -2.5589    0.0000 C   0  0  0  0  0  0  0  0  0  0  0  0
    0.0000   -3.2772    0.0000 C   0  0  0  0  0  0  0  0  0  0  0  0
   -1.3618   -2.5589    0.0000 C   0  0  0  0  0  0  0  0  0  0  0  0
   -2.3893   -3.1787    0.0000 O   0  0  0  0  0  0  0  0  0  0  0  0
    0.0000    0.9727    0.0000 C   0  0  0  0  0  0  0  0  0  0  0  0
  1  2  1  0
  2  3  1  0
  3  4  1  0
  5  4  1  1
  5  6  1  0
  6  7  1  6
  7  8  1  0
  8  9  2  0
  9 10  1  0
  9 11  1  0
 11 12  2  0
 12 13  1  0
 13 14  1  0
 15 14  1  1
 15  2  1  0
 15 16  1  0
 16  5  1  0
 16 17  1  6
 17 18  2  0
 18 19  1  0
 19  6  1  0
 19 20  1  6
 13 21  2  0
 21  5  1  0
 21  8  1  0
M  END

> <chembl_id>
CHEMBL70

> <chembl_pref_name>
MORPHINE

$$$$

     RDKit          2D

 18 19  0  0  0  0  0  0  0  0999 V2000
    4.5917   -2.6625    0.0000 C   0  0  0  0  0  0  0  0  0  0  0  0
    7.2417   -1.5375    0.0000 N   0  0  0  0  0  0  0  0  0  0  0  0
    4.5917   -3.4875    0.0000 C   0  0  0  0  0  0  0  0  0  0  0  0
    5.3125   -1.7250    0.0000 C   0  0  0  0  0  0  0  0  0  0  0  0
    5.5625   -2.2875    0.0000 C   0  0  0  0  0  0  0  0  0  0  0  0
    3.7917   -2.4500    0.0000 C   0  0  0  0  0  0  0  0  0  0  0  0
    6.4042   -2.6625    0.0000 C   0  0  0  0  0  0  0  0  0  0  0  0
    6.2792   -2.1000    0.0000 C   0  0  0  0  0  0  0  0  0  0  0  0
    3.8667   -3.8917    0.0000 O   0  0  0  0  0  0  0  0  0  0  0  0
    5.3000   -3.9042    0.0000 O   0  0  0  0  0  0  0  0  0  0  0  0
    8.0417   -1.7500    0.0000 C   0  0  0  0  0  0  0  0  0  0  0  0
    3.2042   -3.0250    0.0000 C   0  0  0  0  0  0  0  0  0  0  0  0
    3.5875   -1.6375    0.0000 C   0  0  0  0  0  0  0  0  0  0  0  0
    5.2917   -4.7292    0.0000 C   0  0  0  0  0  0  0  0  0  0  0  0
    6.0042   -5.1500    0.0000 C   0  0  0  0  0  0  0  0  0  0  0  0
    2.7875   -1.4167    0.0000 C   0  0  0  0  0  0  0  0  0  0  0  0
    2.4042   -2.8125    0.0000 C   0  0  0  0  0  0  0  0  0  0  0  0
    2.1917   -2.0000    0.0000 C   0  0  0  0  0  0  0  0  0  0  0  0
  2  7  1  0
  3  1  1  0
  4  1  1  0
  5  1  1  0
  6  1  1  0
  7  5  1  0
  8  4  1  0
  9  3  2  0
 10  3  1  0
 11  2  1  0
 12  6  1  0
 13  6  2  0
 14 10  1  0
 15 14  1  0
 16 13  1  0
 17 12  2  0
 18 16  2  0
  8  2  1  0
 17 18  1  0
M  END

> <chembl_id>
CHEMBL607

> <chembl_pref_name>
MEPERIDINE

$$$$

     RDKit          2D

 21 23  0  0  0  0  0  0  0  0999 V2000
    5.6542   -5.9250    0.0000 N   0  0  0  0  0  0  0  0  0  0  0  0
    6.3000   -5.6167    0.0000 C   0  0  0  0  0  0  0  0  0  0  0  0
    5.0167   -5.6042    0.0000 C   0  0  0  0  0  0  0  0  0  0  0  0
    6.4667   -4.9292    0.0000 C   0  0  0  0  0  0  0  0  0  0  0  0
    4.8750   -4.9042    0.0000 C   0  0  0  0  0  0  0  0  0  0  0  0
    6.0417   -4.3792    0.0000 C   0  0  0  0  0  0  0  0  0  0  0  0
    5.3292   -4.3625    0.0000 C   0  0  0  0  0  0  0  0  0  0  0  0
    5.6500   -6.6167    0.0000 C   0  0  0  0  0  0  0  0  0  0  0  0
    5.0250   -6.9667    0.0000 C   0  0  0  0  0  0  0  0  0  0  0  0
    4.3875   -8.0250    0.0000 N   0  0  0  0  0  0  0  0  0  0  0  0
    4.5042   -6.0750    0.0000 C   0  0  0  0  0  0  0  0  0  0  0  0
    6.8167   -6.1125    0.0000 C   0  0  0  0  0  0  0  0  0  0  0  0
    5.0042   -7.6792    0.0000 C   0  0  0  0  0  0  0  0  0  0  0  0
    4.2000   -4.6917    0.0000 C   0  0  0  0  0  0  0  0  0  0  0  0
    7.1542   -4.7292    0.0000 C   0  0  0  0  0  0  0  0  0  0  0  0
    4.3792   -8.7375    0.0000 C   0  0  0  0  0  0  0  0  0  0  0  0
    3.7792   -7.6625    0.0000 C   0  0  0  0  0  0  0  0  0  0  0  0
    3.8250   -5.8542    0.0000 C   0  0  0  0  0  0  0  0  0  0  0  0
    7.4917   -5.9167    0.0000 C   0  0  0  0  0  0  0  0  0  0  0  0
    7.6667   -5.2292    0.0000 C   0  0  0  0  0  0  0  0  0  0  0  0
    3.6750   -5.1542    0.0000 C   0  0  0  0  0  0  0  0  0  0  0  0
  2  1  1  0
  3  1  1  0
  4  2  2  0
  5  3  1  0
  6  4  1  0
  7  5  1  0
  8  1  1  0
  9  8  1  0
 10 13  1  0
 11  3  2  0
 12  2  1  0
 13  9  1  0
 14  5  2  0
 15  4  1  0
 16 10  1  0
 17 10  1  0
 18 11  1  0
 19 12  2  0
 20 19  1  0
 21 18  2  0
  7  6  1  0
 21 14  1  0
 20 15  2  0
M  END

> <chembl_id>
CHEMBL11

> <chembl_pref_name>
IMIPRAMINE

$$$$

     RDKit          2D

 26 29  0  0  0  0  0  0  0  0999 V2000
   13.7846  -19.9868    0.0000 N   0  0  0  0  0  0  0  0  0  0  0  0
   14.4996  -21.2173    0.0000 C   0  0  0  0  0  0  0  0  0  0  0  0
   13.0613  -20.3984    0.0000 C   0  0  0  0  0  0  0  0  0  0  0  0
   12.3504  -19.9868    0.0000 C   0  0  0  0  0  0  0  0  0  0  0  0
   13.0655  -21.2215    0.0000 C   0  0  0  0  0  0  0  0  0  0  0  0
   14.4954  -20.3859    0.0000 C   0  0  0  0  0  0  0  0  0  0  0  0
   13.7846  -21.6330    0.0000 C   0  0  0  0  0  0  0  0  0  0  0  0
   11.6313  -20.3984    0.0000 C   0  0  0  0  0  0  0  0  0  0  0  0
   12.3504  -19.1512    0.0000 O   0  0  0  0  0  0  0  0  0  0  0  0
   11.6313  -21.2215    0.0000 C   0  0  0  0  0  0  0  0  0  0  0  0
   12.3504  -21.6330    0.0000 C   0  0  0  0  0  0  0  0  0  0  0  0
   10.9204  -19.9868    0.0000 N   0  0  0  0  0  0  0  0  0  0  0  0
   15.2104  -21.6205    0.0000 C   0  0  0  0  0  0  0  0  0  0  0  0
   13.7846  -19.1512    0.0000 C   0  0  0  0  0  0  0  0  0  0  0  0
    9.4987  -19.1596    0.0000 N   0  0  0  0  0  0  0  0  0  0  0  0
   13.7846  -22.4561    0.0000 O   0  0  0  0  0  0  0  0  0  0  0  0
   13.0613  -18.7356    0.0000 C   0  0  0  0  0  0  0  0  0  0  0  0
   10.9329  -19.1596    0.0000 C   0  0  0  0  0  0  0  0  0  0  0  0
   10.2096  -20.3984    0.0000 C   0  0  0  0  0  0  0  0  0  0  0  0
   15.9296  -21.2090    0.0000 O   0  0  0  0  0  0  0  0  0  0  0  0
   10.9204  -21.6330    0.0000 F   0  0  0  0  0  0  0  0  0  0  0  0
    9.4987  -19.9868    0.0000 C   0  0  0  0  0  0  0  0  0  0  0  0
   10.2221  -18.7481    0.0000 C   0  0  0  0  0  0  0  0  0  0  0  0
   15.2188  -22.4436    0.0000 O   0  0  0  0  0  0  0  0  0  0  0  0
    8.7879  -18.7397    0.0000 C   0  0  0  0  0  0  0  0  0  0  0  0
   14.4996  -18.7397    0.0000 C   0  0  0  0  0  0  0  0  0  0  0  0
  2  6  2  0
  3  1  1  0
  4  3  2  0
  5  3  1  0
  6  1  1  0
  7  2  1  0
  8  4  1  0
  9 17  1  0
 10 11  1  0
 11  5  2  0
 12  8  1  0
 13  2  1  0
 14  1  1  0
 15 22  1  0
 16  7  2  0
 17 14  1  0
 18 12  1  0
 19 12  1  0
 20 13  2  0
 21 10  1  0
 22 19  1  0
 23 18  1  0
 24 13  1  0
 25 15  1  0
 14 26  1  6
  9  4  1  0
  5  7  1  0
  8 10  2  0
 23 15  1  0
M  END

> <chembl_id>
CHEMBL33

> <chembl_pref_name>
LEVOFLOXACIN

$$$$

     RDKit          2D

 32 34  0  0  1  0  0  0  0  0999 V2000
   -3.5724   -5.3625    0.0000 C   0  0  0  0  0  0  0  0  0  0  0  0
   -2.8579   -4.9500    0.0000 O   0  0  0  0  0  0  0  0  0  0  0  0
   -2.1434   -5.3625    0.0000 C   0  0  0  0  0  0  0  0  0  0  0  0
   -1.4289   -4.9500    0.0000 C   0  0  0  0  0  0  0  0  0  0  0  0
   -0.7145   -5.3625    0.0000 N   0  0  0  0  0  0  0  0  0  0  0  0
    0.0000   -4.9500    0.0000 C   0  0  0  0  0  0  0  0  0  0  0  0
    0.7145   -5.3625    0.0000 C   0  0  0  0  0  0  0  0  0  0  0  0
    1.4289   -4.9500    0.0000 C   0  0  0  0  0  0  0  0  0  0  0  0
    2.1434   -5.3625    0.0000 O   0  0  0  0  0  0  0  0  0  0  0  0
    2.8579   -4.9500    0.0000 C   0  0  0  0  0  0  0  0  0  0  0  0
    2.8579   -4.1250    0.0000 C   0  0  0  0  0  0  0  0  0  0  0  0
    3.5724   -3.7125    0.0000 C   0  0  0  0  0  0  0  0  0  0  0  0
    4.2868   -4.1250    0.0000 C   0  0  0  0  0  0  0  0  0  0  0  0
    5.0013   -3.7125    0.0000 F   0  0  0  0  0  0  0  0  0  0  0  0
    4.2868   -4.9500    0.0000 C   0  0  0  0  0  0  0  0  0  0  0  0
    3.5724   -5.3625    0.0000 C   0  0  0  0  0  0  0  0  0  0  0  0
   -0.7145   -6.1875    0.0000 C   0  0  0  0  0  0  0  0  0  0  0  0
   -1.4289   -6.6000    0.0000 C   0  0  0  0  0  0  0  0  0  0  0  0
   -2.1434   -6.1875    0.0000 C   0  0  0  0  0  0  0  0  0  0  0  0
   -2.8579   -6.6000    0.0000 N   0  0  0  0  0  0  0  0  0  0  0  0
   -2.8579   -7.4250    0.0000 C   0  0  0  0  0  0  0  0  0  0  0  0
   -2.1434   -7.8375    0.0000 O   0  0  0  0  0  0  0  0  0  0  0  0
   -3.5724   -7.8375    0.0000 C   0  0  0  0  0  0  0  0  0  0  0  0
   -3.5724   -8.6625    0.0000 C   0  0  0  0  0  0  0  0  0  0  0  0
   -4.2868   -9.0750    0.0000 C   0  0  0  0  0  0  0  0  0  0  0  0
   -4.2868   -9.9000    0.0000 Cl  0  0  0  0  0  0  0  0  0  0  0  0
   -5.0013   -8.6625    0.0000 C   0  0  0  0  0  0  0  0  0  0  0  0
   -5.7158   -9.0750    0.0000 N   0  0  0  0  0  0  0  0  0  0  0  0
   -5.0013   -7.8375    0.0000 C   0  0  0  0  0  0  0  0  0  0  0  0
   -4.2868   -7.4250    0.0000 C   0  0  0  0  0  0  0  0  0  0  0  0
   -4.2868   -6.6000    0.0000 O   0  0  0  0  0  0  0  0  0  0  0  0
   -3.5724   -6.1875    0.0000 C   0  0  0  0  0  0  0  0  0  0  0  0
  1  2  1  0
  3  2  1  0
  3  4  1  0
  4  5  1  0
  5  6  1  0
  6  7  1  0
  7  8  1  0
  8  9  1  0
  9 10  1  0
 10 11  2  0
 11 12  1  0
 12 13  2  0
 13 14  1  0
 13 15  1  0
 15 16  2  0
 10 16  1  0
  5 17  1  0
 17 18  1  0
 18 19  1  0
  3 19  1  0
 19 20  1  0
 20 21  1  0
 21 22  2  0
 21 23  1  0
 23 24  2  0
 24 25  1  0
 25 26  1  0
 25 27  2  0
 27 28  1  0
 27 29  1  0
 29 30  2  0
 23 30  1  0
 30 31  1  0
 31 32  1  0
M  END

> <chembl_id>
CHEMBL1729

> <chembl_pref_name>
CISAPRIDE

$$$$

     RDKit          2D

 31 35  0  0  0  0  0  0  0  0999 V2000
   13.8223    1.5823    0.0000 C   0  0  0  0  0  0  0  0  0  0  0  0
   13.8211    0.7555    0.0000 C   0  0  0  0  0  0  0  0  0  0  0  0
   14.5355    0.3429    0.0000 C   0  0  0  0  0  0  0  0  0  0  0  0
   14.5337    1.9947    0.0000 C   0  0  0  0  0  0  0  0  0  0  0  0
   15.2485    1.5859    0.0000 C   0  0  0  0  0  0  0  0  0  0  0  0
   15.2534    0.7555    0.0000 C   0  0  0  0  0  0  0  0  0  0  0  0
   16.0448    0.5038    0.0000 N   0  0  0  0  0  0  0  0  0  0  0  0
   16.5290    1.1782    0.0000 C   0  0  0  0  0  0  0  0  0  0  0  0
   16.0365    1.8466    0.0000 C   0  0  0  0  0  0  0  0  0  0  0  0
   16.4485    2.5607    0.0000 C   0  0  0  0  0  0  0  0  0  0  0  0
   17.2706    2.5608    0.0000 C   0  0  0  0  0  0  0  0  0  0  0  0
   17.6825    3.2708    0.0000 C   0  0  0  0  0  0  0  0  0  0  0  0
   17.2736    3.9871    0.0000 N   0  0  0  0  0  0  0  0  0  0  0  0
   16.4482    3.9888    0.0000 C   0  0  0  0  0  0  0  0  0  0  0  0
   16.0317    3.2743    0.0000 C   0  0  0  0  0  0  0  0  0  0  0  0
   16.4529   -0.2126    0.0000 C   0  0  0  0  0  0  0  0  0  0  0  0
   16.0348   -0.9242    0.0000 C   0  0  0  0  0  0  0  0  0  0  0  0
   16.4422   -1.6401    0.0000 C   0  0  0  0  0  0  0  0  0  0  0  0
   17.2675   -1.6453    0.0000 C   0  0  0  0  0  0  0  0  0  0  0  0
   17.6837   -0.9287    0.0000 C   0  0  0  0  0  0  0  0  0  0  0  0
   17.2739   -0.2158    0.0000 C   0  0  0  0  0  0  0  0  0  0  0  0
   17.6766   -2.3611    0.0000 F   0  0  0  0  0  0  0  0  0  0  0  0
   17.6883    4.7021    0.0000 C   0  0  0  0  0  0  0  0  0  0  0  0
   18.5128    4.7050    0.0000 C   0  0  0  0  0  0  0  0  0  0  0  0
   18.9274    5.4165    0.0000 N   0  0  0  0  0  0  0  0  0  0  0  0
   19.7443    5.4924    0.0000 C   0  0  0  0  0  0  0  0  0  0  0  0
   19.9186    6.3021    0.0000 N   0  0  0  0  0  0  0  0  0  0  0  0
   19.2060    6.7201    0.0000 C   0  0  0  0  0  0  0  0  0  0  0  0
   18.5915    6.1705    0.0000 C   0  0  0  0  0  0  0  0  0  0  0  0
   20.2936    4.8830    0.0000 O   0  0  0  0  0  0  0  0  0  0  0  0
   13.1082    1.9943    0.0000 Cl  0  0  0  0  0  0  0  0  0  0  0  0
 13 14  1  0
 14 15  1  0
  5  4  2  0
  7 16  1  0
  6  7  1  0
 16 17  2  0
  7  8  1  0
 17 18  1  0
  8  9  2  0
 18 19  2  0
  9  5  1  0
 19 20  1  0
  4  1  1  0
 20 21  2  0
 21 16  1  0
  9 10  1  0
 19 22  1  0
 10 11  1  0
 13 23  1  0
  5  6  1  0
 23 24  1  0
 24 25  1  0
 25 26  1  0
  2  3  1  0
  3  6  2  0
  1  2  2  0
 10 15  1  0
 26 27  1  0
 27 28  1  0
 28 29  1  0
 29 25  1  0
 11 12  1  0
 26 30  2  0
 12 13  1  0
  1 31  1  0
M  END

> <chembl_id>
CHEMBL12713

> <chembl_pref_name>
SERTINDOLE

$$$$

     RDKit          2D

 26 28  0  0  0  0  0  0  0  0999 V2000
    2.3238   -0.1256    0.0000 O   0  0  0  0  0  0  0  0  0  0  0  0
    1.2990   -0.7500    0.0000 C   0  0  0  0  0  0  0  0  0  0  0  0
    1.2990    0.7500    0.0000 C   0  0  0  0  0  0  0  0  0  0  0  0
    0.0000    1.5000    0.0000 C   0  0  0  0  0  0  0  0  0  0  0  0
   -1.2990    0.7500    0.0000 N   0  0  0  0  0  0  0  0  0  0  0  0
   -2.6003    1.4977    0.0000 C   0  0  0  0  0  0  0  0  0  0  0  0
   -3.8990    0.7455    0.0000 C   0  0  0  0  0  0  0  0  0  0  0  0
   -5.2003    1.4932    0.0000 C   0  0  0  0  0  0  0  0  0  0  0  0
   -6.4990    0.7409    0.0000 C   0  0  0  0  0  0  0  0  0  0  0  0
   -6.4969   -0.4591    0.0000 O   0  0  0  0  0  0  0  0  0  0  0  0
   -7.8003    1.4887    0.0000 C   0  0  0  0  0  0  0  0  0  0  0  0
   -9.0994    0.7387    0.0000 C   0  0  0  0  0  0  0  0  0  0  0  0
  -10.3984    1.4886    0.0000 C   0  0  0  0  0  0  0  0  0  0  0  0
  -10.3985    2.9886    0.0000 C   0  0  0  0  0  0  0  0  0  0  0  0
  -11.4377    3.5886    0.0000 F   0  0  0  0  0  0  0  0  0  0  0  0
   -9.0995    3.7387    0.0000 C   0  0  0  0  0  0  0  0  0  0  0  0
   -7.8004    2.9887    0.0000 C   0  0  0  0  0  0  0  0  0  0  0  0
   -1.2990   -0.7500    0.0000 C   0  0  0  0  0  0  0  0  0  0  0  0
    0.0000   -1.5000    0.0000 C   0  0  0  0  0  0  0  0  0  0  0  0
    1.2643   -2.2302    0.0000 C   0  0  0  0  0  0  0  0  0  0  0  0
    2.5453   -3.0105    0.0000 C   0  0  0  0  0  0  0  0  0  0  0  0
    2.5101   -4.5101    0.0000 C   0  0  0  0  0  0  0  0  0  0  0  0
    1.1938   -5.2294    0.0000 C   0  0  0  0  0  0  0  0  0  0  0  0
    1.1656   -6.4291    0.0000 Cl  0  0  0  0  0  0  0  0  0  0  0  0
   -0.0872   -4.4491    0.0000 C   0  0  0  0  0  0  0  0  0  0  0  0
   -0.0520   -2.9495    0.0000 C   0  0  0  0  0  0  0  0  0  0  0  0
  1  2  1  0
  2  3  1  0
  3  4  1  0
  4  5  1  0
  5  6  1  0
  6  7  1  0
  7  8  1  0
  8  9  1  0
  9 10  2  0
  9 11  1  0
 11 12  2  0
 12 13  1  0
 13 14  2  0
 14 15  1  0
 14 16  1  0
 16 17  2  0
 17 11  1  0
  5 18  1  0
 18 19  1  0
 19  2  1  0
  2 20  1  0
 20 21  2  0
 21 22  1  0
 22 23  2  0
 23 24  1  0
 23 25  1  0
 25 26  2  0
 26 20  1  0
M  END

> <chembl_id>
CHEMBL54

> <chembl_pref_name>
HALOPERIDOL

$$$$

     RDKit          2D

 25 26  0  0  0  0  0  0  0  0999 V2000
    2.7771   -1.0106    0.0000 C   0  0  0  0  0  0  0  0  0  0  0  0
    1.7946   -2.1834    0.0000 C   0  0  0  0  0  0  0  0  0  0  0  0
    3.2929   -2.4200    0.0000 C   0  0  0  0  0  0  0  0  0  0  0  0
    5.2871   -4.0883    0.0000 N   0  0  0  0  0  0  0  0  0  0  0  0
    4.7712   -2.6789    0.0000 C   0  0  0  0  0  0  0  0  0  0  0  0
    1.2990   -0.7500    0.0000 C   0  0  0  0  0  0  0  0  0  0  0  0
    3.7424    0.1386    0.0000 C   0  0  0  0  0  0  0  0  0  0  0  0
    1.2990    0.7500    0.0000 N   0  0  0  0  0  0  0  0  0  0  0  0
    2.2052   -3.3109    0.0000 O   0  0  0  0  0  0  0  0  0  0  0  0
    0.6127   -1.9756    0.0000 N   0  0  0  0  0  0  0  0  0  0  0  0
    6.7654   -4.3473    0.0000 C   0  0  0  0  0  0  0  0  0  0  0  0
    4.3216   -5.2375    0.0000 C   0  0  0  0  0  0  0  0  0  0  0  0
    0.0000    1.5000    0.0000 C   0  0  0  0  0  0  0  0  0  0  0  0
    0.0000   -1.5000    0.0000 C   0  0  0  0  0  0  0  0  0  0  0  0
    5.2195   -0.1226    0.0000 C   0  0  0  0  0  0  0  0  0  0  0  0
    3.2302    1.5484    0.0000 C   0  0  0  0  0  0  0  0  0  0  0  0
    7.1778   -5.4742    0.0000 C   0  0  0  0  0  0  0  0  0  0  0  0
    3.1399   -5.0291    0.0000 C   0  0  0  0  0  0  0  0  0  0  0  0
    4.7318   -6.3652    0.0000 C   0  0  0  0  0  0  0  0  0  0  0  0
    7.5354   -3.4269    0.0000 C   0  0  0  0  0  0  0  0  0  0  0  0
   -1.2990    0.7500    0.0000 C   0  0  0  0  0  0  0  0  0  0  0  0
    6.1843    1.0259    0.0000 C   0  0  0  0  0  0  0  0  0  0  0  0
    4.1949    2.6970    0.0000 C   0  0  0  0  0  0  0  0  0  0  0  0
   -1.2990   -0.7500    0.0000 C   0  0  0  0  0  0  0  0  0  0  0  0
    5.6720    2.4357    0.0000 C   0  0  0  0  0  0  0  0  0  0  0  0
  2  1  1  0
  3  1  1  0
  4  5  1  0
  5  3  1  0
  6  1  1  0
  7  1  1  0
  8  6  2  0
  9  2  2  0
 10  2  1  0
 11  4  1  0
 12  4  1  0
 13  8  1  0
 14  6  1  0
 15  7  1  0
 16  7  2  0
 17 11  1  0
 18 12  1  0
 19 12  1  0
 20 11  1  0
 21 13  2  0
 22 15  2  0
 23 16  1  0
 24 14  2  0
 25 22  1  0
 24 21  1  0
 23 25  2  0
M  END

> <chembl_id>
CHEMBL517

> <chembl_pref_name>
DISOPYRAMIDE

$$$$

     RDKit          2D

 28 29  0  0  0  0  0  0  0  0999 V2000
    2.4542   -3.6292    0.0000 C   0  0  0  0  0  0  0  0  0  0  0  0
    3.0792   -3.2875    0.0000 C   0  0  0  0  0  0  0  0  0  0  0  0
    3.6917   -5.7250    0.0000 C   0  0  0  0  0  0  0  0  0  0  0  0
   -0.6125   -3.2917    0.0000 C   0  0  0  0  0  0  0  0  0  0  0  0
    2.4542   -4.3375    0.0000 C   0  0  0  0  0  0  0  0  0  0  0  0
    3.6917   -3.6292    0.0000 N   0  0  0  0  0  0  0  0  0  0  0  0
    1.8167   -3.2875    0.0000 C   0  0  0  0  0  0  0  0  0  0  0  0
    5.5042   -3.2875    0.0000 N   0  0  0  0  0  0  0  0  0  0  0  0
    3.0792   -4.7000    0.0000 O   0  0  0  0  0  0  0  0  0  0  0  0
    3.0917   -2.5875    0.0000 O   0  0  0  0  0  0  0  0  0  0  0  0
    3.0792   -5.4000    0.0000 C   0  0  0  0  0  0  0  0  0  0  0  0
    0.0042   -3.6292    0.0000 C   0  0  0  0  0  0  0  0  0  0  0  0
    1.8167   -4.6875    0.0000 C   0  0  0  0  0  0  0  0  0  0  0  0
   -0.2625   -2.6792    0.0000 F   0  0  0  0  0  0  0  0  0  0  0  0
   -0.9708   -2.6792    0.0000 F   0  0  0  0  0  0  0  0  0  0  0  0
    3.3375   -6.3375    0.0000 F   0  0  0  0  0  0  0  0  0  0  0  0
    4.0417   -6.3375    0.0000 F   0  0  0  0  0  0  0  0  0  0  0  0
    4.2917   -5.3542    0.0000 F   0  0  0  0  0  0  0  0  0  0  0  0
   -1.2208   -3.6625    0.0000 F   0  0  0  0  0  0  0  0  0  0  0  0
    1.2167   -3.6292    0.0000 C   0  0  0  0  0  0  0  0  0  0  0  0
    0.6042   -3.2750    0.0000 O   0  0  0  0  0  0  0  0  0  0  0  0
    4.2917   -3.2875    0.0000 C   0  0  0  0  0  0  0  0  0  0  0  0
    4.9042   -3.6292    0.0000 C   0  0  0  0  0  0  0  0  0  0  0  0
    1.2167   -4.3375    0.0000 C   0  0  0  0  0  0  0  0  0  0  0  0
    6.1167   -3.6292    0.0000 C   0  0  0  0  0  0  0  0  0  0  0  0
    4.9042   -4.3292    0.0000 C   0  0  0  0  0  0  0  0  0  0  0  0
    6.1167   -4.3375    0.0000 C   0  0  0  0  0  0  0  0  0  0  0  0
    5.5042   -4.6875    0.0000 C   0  0  0  0  0  0  0  0  0  0  0  0
  2  1  1  0
  3 11  1  0
  4 12  1  0
  5  1  2  0
  6  2  1  0
  7  1  1  0
  8 23  1  0
  9  5  1  0
 10  2  2  0
 11  9  1  0
 12 21  1  0
 13  5  1  0
 14  4  1  0
 15  4  1  0
 16  3  1  0
 17  3  1  0
 18  3  1  0
 19  4  1  0
 20  7  2  0
 21 20  1  0
 22  6  1  0
 23 22  1  0
 24 20  1  0
 25  8  1  0
 26 23  1  0
 27 25  1  0
 28 26  1  0
 13 24  2  0
 28 27  1  0
M  END

> <chembl_id>
CHEMBL652

> <chembl_pref_name>
FLECAINIDE

$$$$

     RDKit          2D

 35 38  0  0  0  0  0  0  0  0999 V2000
    1.3292   -0.3500    0.0000 C   0  0  0  0  0  0  0  0  0  0  0  0
    3.4167    0.2458    0.0000 N   0  0  0  0  0  0  0  0  0  0  0  0
    1.8542   -0.6500    0.0000 O   0  0  0  0  0  0  0  0  0  0  0  0
    7.5750    1.4250    0.0000 C   0  0  0  0  0  0  0  0  0  0  0  0
    7.0542    1.1333    0.0000 C   0  0  0  0  0  0  0  0  0  0  0  0
    5.4917    0.2333    0.0000 C   0  0  0  0  0  0  0  0  0  0  0  0
    6.0167    0.5333    0.0000 C   0  0  0  0  0  0  0  0  0  0  0  0
    1.3292    0.2500    0.0000 C   0  0  0  0  0  0  0  0  0  0  0  0
    0.8167   -0.6500    0.0000 C   0  0  0  0  0  0  0  0  0  0  0  0
    5.4917   -0.3667    0.0000 O   0  0  0  0  0  0  0  0  0  0  0  0
    6.5292    1.4333    0.0000 C   0  0  0  0  0  0  0  0  0  0  0  0
    7.0500    0.5250    0.0000 C   0  0  0  0  0  0  0  0  0  0  0  0
    6.0125    1.1333    0.0000 C   0  0  0  0  0  0  0  0  0  0  0  0
    6.5292    0.2333    0.0000 C   0  0  0  0  0  0  0  0  0  0  0  0
    2.3750   -0.3500    0.0000 C   0  0  0  0  0  0  0  0  0  0  0  0
    2.3750    0.2458    0.0000 C   0  0  0  0  0  0  0  0  0  0  0  0
    2.8917   -0.6542    0.0000 C   0  0  0  0  0  0  0  0  0  0  0  0
    3.4125   -0.3542    0.0000 C   0  0  0  0  0  0  0  0  0  0  0  0
    2.8917    0.5458    0.0000 C   0  0  0  0  0  0  0  0  0  0  0  0
    3.9375    0.5458    0.0000 C   0  0  0  0  0  0  0  0  0  0  0  0
    4.4542    0.2375    0.0000 C   0  0  0  0  0  0  0  0  0  0  0  0
    4.9750    0.5375    0.0000 C   0  0  0  0  0  0  0  0  0  0  0  0
    8.0917    1.1250    0.0000 C   0  0  0  0  0  0  0  0  0  0  0  0
    7.5750    2.0250    0.0000 C   0  0  0  0  0  0  0  0  0  0  0  0
    7.7292    0.8458    0.0000 C   0  0  0  0  0  0  0  0  0  0  0  0
    1.8542    0.5500    0.0000 C   0  0  0  0  0  0  0  0  0  0  0  0
    0.2917   -0.3542    0.0000 C   0  0  0  0  0  0  0  0  0  0  0  0
    0.8167    0.5500    0.0000 C   0  0  0  0  0  0  0  0  0  0  0  0
    0.8167   -1.2542    0.0000 C   0  0  0  0  0  0  0  0  0  0  0  0
    1.8542    1.1583    0.0000 C   0  0  0  0  0  0  0  0  0  0  0  0
    0.2917   -1.5542    0.0000 C   0  0  0  0  0  0  0  0  0  0  0  0
   -0.2208   -0.6542    0.0000 C   0  0  0  0  0  0  0  0  0  0  0  0
    0.8167    1.1500    0.0000 C   0  0  0  0  0  0  0  0  0  0  0  0
    1.3292    1.4583    0.0000 C   0  0  0  0  0  0  0  0  0  0  0  0
   -0.2208   -1.2542    0.0000 C   0  0  0  0  0  0  0  0  0  0  0  0
  2 18  1  0
  3  1  1  0
  4  5  1  0
  5 12  2  0
  6 22  1  0
  7  6  1  0
  8  1  1  0
  9  1  1  0
 10  6  2  0
 11 13  2  0
 12 14  1  0
 13  7  1  0
 14  7  2  0
 15  3  1  0
 16 15  1  0
 17 15  1  0
 18 17  1  0
 19 16  1  0
 20  2  1  0
 21 20  1  0
 22 21  1  0
 23  4  1  0
 24  4  1  0
 25  4  1  0
 26  8  2  0
 27  9  2  0
 28  8  1  0
 29  9  1  0
 30 26  1  0
 31 29  2  0
 32 27  1  0
 33 28  2  0
 34 33  1  0
 35 31  1  0
 32 35  2  0
 30 34  2  0
  2 19  1  0
 11  5  1  0
M  END

> <chembl_id>
CHEMBL305660

> <chembl_pref_name>
EBASTINE

$$$$

     RDKit          2D

 21 23  0  0  0  0  0  0  0  0999 V2000
    0.0000    1.5002    0.0000 N   0  0  0  0  0  0  0  0  0  0  0  0
   -1.2989    0.7501    0.0000 C   0  0  0  0  0  0  0  0  0  0  0  0
    0.0000   -1.5002    0.0000 S   0  0  0  0  0  0  0  0  0  0  0  0
    1.2806    0.7501    0.0000 C   0  0  0  0  0  0  0  0  0  0  0  0
   -1.2989   -0.7501    0.0000 C   0  0  0  0  0  0  0  0  0  0  0  0
    1.2806   -0.7501    0.0000 C   0  0  0  0  0  0  0  0  0  0  0  0
   -2.5978    1.5002    0.0000 C   0  0  0  0  0  0  0  0  0  0  0  0
   -2.5978   -1.5002    0.0000 C   0  0  0  0  0  0  0  0  0  0  0  0
    0.0120    3.0009    0.0000 C   0  0  0  0  0  0  0  0  0  0  0  0
   -3.8968    0.7501    0.0000 C   0  0  0  0  0  0  0  0  0  0  0  0
    1.3173    3.7417    0.0000 C   0  0  0  0  0  0  0  0  0  0  0  0
    2.6346    5.9832    0.0000 N   0  0  0  0  0  0  0  0  0  0  0  0
   -3.8968   -0.7501    0.0000 C   0  0  0  0  0  0  0  0  0  0  0  0
   -4.9360    1.3500    0.0000 Cl  0  0  0  0  0  0  0  0  0  0  0  0
    2.5978    1.5002    0.0000 C   0  0  0  0  0  0  0  0  0  0  0  0
    2.5978   -1.5002    0.0000 C   0  0  0  0  0  0  0  0  0  0  0  0
    1.3293    5.2425    0.0000 C   0  0  0  0  0  0  0  0  0  0  0  0
    2.6443    7.1832    0.0000 C   0  0  0  0  0  0  0  0  0  0  0  0
    3.6692    5.3752    0.0000 C   0  0  0  0  0  0  0  0  0  0  0  0
    3.8968    0.7501    0.0000 C   0  0  0  0  0  0  0  0  0  0  0  0
    3.8968   -0.7501    0.0000 C   0  0  0  0  0  0  0  0  0  0  0  0
  2  1  1  0
  3  6  1  0
  4  1  1  0
  5  2  2  0
  6  4  2  0
  7  2  1  0
  8  5  1  0
  9  1  1  0
 10  7  2  0
 11  9  1  0
 12 17  1  0
 13 10  1  0
 14 10  1  0
 15  4  1  0
 16  6  1  0
 17 11  1  0
 18 12  1  0
 19 12  1  0
 20 15  2  0
 21 20  1  0
  3  5  1  0
 16 21  2  0
  8 13  2  0
M  END

> <chembl_id>
CHEMBL71

> <chembl_pref_name>
CHLORPROMAZINE

$$$$

     RDKit          2D

 32 36  0  0  0  0  0  0  0  0999 V2000
   -4.1208  -17.0186    0.0000 C   0  0  0  0  0  0  0  0  0  0  0  0
   -4.1219  -17.8456    0.0000 C   0  0  0  0  0  0  0  0  0  0  0  0
   -3.4073  -18.2584    0.0000 C   0  0  0  0  0  0  0  0  0  0  0  0
   -3.4091  -16.6060    0.0000 C   0  0  0  0  0  0  0  0  0  0  0  0
   -2.6940  -17.0149    0.0000 C   0  0  0  0  0  0  0  0  0  0  0  0
   -2.6891  -17.8457    0.0000 C   0  0  0  0  0  0  0  0  0  0  0  0
   -1.8976  -18.0978    0.0000 N   0  0  0  0  0  0  0  0  0  0  0  0
   -1.4132  -17.4228    0.0000 C   0  0  0  0  0  0  0  0  0  0  0  0
   -1.9055  -16.7537    0.0000 N   0  0  0  0  0  0  0  0  0  0  0  0
   -0.5885  -17.4180    0.0000 N   0  0  0  0  0  0  0  0  0  0  0  0
   -0.1740  -18.1274    0.0000 C   0  0  0  0  0  0  0  0  0  0  0  0
    0.6471  -18.1245    0.0000 C   0  0  0  0  0  0  0  0  0  0  0  0
    1.0591  -17.4098    0.0000 C   0  0  0  0  0  0  0  0  0  0  0  0
    0.6438  -16.6962    0.0000 C   0  0  0  0  0  0  0  0  0  0  0  0
   -0.1836  -16.6974    0.0000 C   0  0  0  0  0  0  0  0  0  0  0  0
    1.8838  -17.4080    0.0000 N   0  0  0  0  0  0  0  0  0  0  0  0
    2.2945  -16.6930    0.0000 C   0  0  0  0  0  0  0  0  0  0  0  0
    3.1170  -16.6936    0.0000 N   0  0  0  0  0  0  0  0  0  0  0  0
    3.5278  -15.9793    0.0000 C   0  0  0  0  0  0  0  0  0  0  0  0
    3.1138  -15.2650    0.0000 C   0  0  0  0  0  0  0  0  0  0  0  0
    2.2849  -15.2694    0.0000 C   0  0  0  0  0  0  0  0  0  0  0  0
    1.8779  -15.9842    0.0000 N   0  0  0  0  0  0  0  0  0  0  0  0
   -1.6552  -15.9679    0.0000 C   0  0  0  0  0  0  0  0  0  0  0  0
   -2.2107  -15.3583    0.0000 C   0  0  0  0  0  0  0  0  0  0  0  0
   -1.9570  -14.5741    0.0000 C   0  0  0  0  0  0  0  0  0  0  0  0
   -2.5116  -13.9648    0.0000 C   0  0  0  0  0  0  0  0  0  0  0  0
   -3.3182  -14.1407    0.0000 C   0  0  0  0  0  0  0  0  0  0  0  0
   -3.5672  -14.9314    0.0000 C   0  0  0  0  0  0  0  0  0  0  0  0
   -3.0109  -15.5373    0.0000 C   0  0  0  0  0  0  0  0  0  0  0  0
   -3.8745  -13.5318    0.0000 F   0  0  0  0  0  0  0  0  0  0  0  0
    2.2976  -18.1213    0.0000 C   0  0  0  0  0  0  0  0  0  0  0  0
    4.3525  -15.9779    0.0000 O   0  0  0  0  0  0  0  0  0  0  0  0
 14 15  1  0
  5  4  2  0
 13 16  1  0
  6  7  1  0
 16 17  1  0
  7  8  2  0
 17 18  1  0
  8  9  1  0
 18 19  1  0
  9  5  1  0
 19 20  1  0
  4  1  1  0
 20 21  2  0
  8 10  1  0
 21 22  1  0
 22 17  2  0
 10 11  1  0
  9 23  1  0
  5  6  1  0
 23 24  1  0
 24 25  2  0
  2  3  1  0
 25 26  1  0
  3  6  2  0
 26 27  2  0
  1  2  2  0
 27 28  1  0
 10 15  1  0
 28 29  2  0
 29 24  1  0
 11 12  1  0
 27 30  1  0
 12 13  1  0
 16 31  1  0
 13 14  1  0
 19 32  2  0
M  END

> <chembl_id>
CHEMBL94454

> <chembl_pref_name>
MIZOLASTINE

$$$$

     RDKit          2D

 36 39  0  0  0  0  0  0  0  0999 V2000
    2.9361  -14.1083    0.0000 C   0  0  0  0  0  0  0  0  0  0  0  0
    2.9349  -14.9357    0.0000 C   0  0  0  0  0  0  0  0  0  0  0  0
    3.6497  -15.3485    0.0000 C   0  0  0  0  0  0  0  0  0  0  0  0
    3.6479  -13.6955    0.0000 C   0  0  0  0  0  0  0  0  0  0  0  0
    4.3633  -14.1047    0.0000 C   0  0  0  0  0  0  0  0  0  0  0  0
    4.3621  -14.9331    0.0000 C   0  0  0  0  0  0  0  0  0  0  0  0
    5.0751  -15.3461    0.0000 C   0  0  0  0  0  0  0  0  0  0  0  0
    5.7938  -14.9352    0.0000 C   0  0  0  0  0  0  0  0  0  0  0  0
    5.7949  -14.1067    0.0000 C   0  0  0  0  0  0  0  0  0  0  0  0
    5.0774  -13.6891    0.0000 C   0  0  0  0  0  0  0  0  0  0  0  0
    5.0774  -12.8641    0.0000 C   0  0  0  0  0  0  0  0  0  0  0  0
    6.5104  -13.6959    0.0000 C   0  0  0  0  0  0  0  0  0  0  0  0
    6.9167  -14.4083    0.0000 C   0  0  0  0  0  0  0  0  0  0  0  0
    7.7417  -14.4127    0.0000 N   0  0  0  0  0  0  0  0  0  0  0  0
    8.3208  -13.8250    0.0000 C   0  0  0  0  0  0  0  0  0  0  0  0
    9.1193  -14.0327    0.0000 C   0  0  0  0  0  0  0  0  0  0  0  0
    9.6983  -13.4451    0.0000 C   0  0  0  0  0  0  0  0  0  0  0  0
   10.4968  -13.6527    0.0000 C   0  0  0  0  0  0  0  0  0  0  0  0
   10.8005  -14.4186    0.0000 N   0  0  0  0  0  0  0  0  0  0  0  0
   11.1365  -13.1268    0.0000 N   0  0  0  0  0  0  0  0  0  0  0  0
   11.8317  -13.5709    0.0000 C   0  0  0  0  0  0  0  0  0  0  0  0
   11.6226  -14.3686    0.0000 C   0  0  0  0  0  0  0  0  0  0  0  0
   12.2082  -14.9465    0.0000 C   0  0  0  0  0  0  0  0  0  0  0  0
   13.0031  -14.7280    0.0000 C   0  0  0  0  0  0  0  0  0  0  0  0
   13.2091  -13.9262    0.0000 C   0  0  0  0  0  0  0  0  0  0  0  0
   12.6220  -13.3518    0.0000 C   0  0  0  0  0  0  0  0  0  0  0  0
    8.0581  -15.1746    0.0000 C   0  0  0  0  0  0  0  0  0  0  0  0
    5.5837  -13.3092    0.0000 O   0  0  0  0  0  0  0  0  0  0  0  0
    6.2958  -12.8917    0.0000 C   0  0  0  0  0  0  0  0  0  0  0  0
    7.0130  -13.2994    0.0000 O   0  0  0  0  0  0  0  0  0  0  0  0
    6.2903  -12.0667    0.0000 C   0  0  0  0  0  0  0  0  0  0  0  0
    7.0020  -11.6494    0.0000 O   0  0  0  0  0  0  0  0  0  0  0  0
    6.9965  -10.8244    0.0000 C   0  0  0  0  0  0  0  0  0  0  0  0
    5.7919  -12.4517    0.0000 C   0  0  0  0  0  0  0  0  0  0  0  0
    4.3630  -12.4516    0.0000 C   0  0  0  0  0  0  0  0  0  0  0  0
    2.2201  -15.3476    0.0000 F   0  0  0  0  0  0  0  0  0  0  0  0
  5 10  1  0
 17 18  1  0
 18 19  1  0
  6  7  1  0
  7  8  1  0
 19 22  1  0
 21 20  1  0
 20 18  2  0
  8  9  1  0
  9 10  1  0
 21 22  2  0
  5  6  1  0
 22 23  1  0
 10 11  1  6
 23 24  2  0
 24 25  1  0
  9 12  1  1
 25 26  2  0
 26 21  1  0
  2  3  1  0
 14 27  1  0
 12 13  1  0
  9 28  1  6
  3  6  2  0
 28 29  1  0
 13 14  1  0
 29 30  2  0
  1  2  2  0
 29 31  1  0
 14 15  1  0
 31 32  1  0
  5  4  2  0
 32 33  1  0
 15 16  1  0
 11 34  1  0
  4  1  1  0
 11 35  1  0
 16 17  1  0
  2 36  1  0
M  END

> <chembl_id>
CHEMBL45816

> <chembl_pref_name>
MIBEFRADIL

$$$$

     RDKit          2D

 33 35  0  0  0  0  0  0  0  0999 V2000
   -2.0792   -9.5417    0.0000 C   0  0  0  0  0  0  0  0  0  0  0  0
   -2.0750  -10.2417    0.0000 C   0  0  0  0  0  0  0  0  0  0  0  0
   -1.4667  -10.5958    0.0000 C   0  0  0  0  0  0  0  0  0  0  0  0
   -1.4708   -9.1875    0.0000 C   0  0  0  0  0  0  0  0  0  0  0  0
   -0.8583   -9.5333    0.0000 C   0  0  0  0  0  0  0  0  0  0  0  0
   -3.3083   -8.1208    0.0000 C   0  0  0  0  0  0  0  0  0  0  0  0
   -0.8583  -10.2417    0.0000 C   0  0  0  0  0  0  0  0  0  0  0  0
   -2.6958   -9.1875    0.0000 C   0  0  0  0  0  0  0  0  0  0  0  0
   -1.4667  -11.2958    0.0000 C   0  0  0  0  0  0  0  0  0  0  0  0
   -2.6958   -8.4750    0.0000 C   0  0  0  0  0  0  0  0  0  0  0  0
   -2.0750  -11.6458    0.0000 C   0  0  0  0  0  0  0  0  0  0  0  0
   -1.4708   -8.4750    0.0000 C   0  0  0  0  0  0  0  0  0  0  0  0
   -2.6833  -10.5917    0.0000 C   0  0  0  0  0  0  0  0  0  0  0  0
   -2.6875  -11.2958    0.0000 C   0  0  0  0  0  0  0  0  0  0  0  0
   -0.2458   -9.1792    0.0000 C   0  0  0  0  0  0  0  0  0  0  0  0
    0.3708   -9.5292    0.0000 C   0  0  0  0  0  0  0  0  0  0  0  0
   -2.0833   -8.1208    0.0000 C   0  0  0  0  0  0  0  0  0  0  0  0
   -3.6708   -7.5042    0.0000 F   0  0  0  0  0  0  0  0  0  0  0  0
   -3.9208   -8.4750    0.0000 F   0  0  0  0  0  0  0  0  0  0  0  0
   -2.9583   -7.5042    0.0000 F   0  0  0  0  0  0  0  0  0  0  0  0
   -0.8542  -11.6500    0.0000 Cl  0  0  0  0  0  0  0  0  0  0  0  0
    0.9833   -9.1750    0.0000 C   0  0  0  0  0  0  0  0  0  0  0  0
    1.5958   -9.5250    0.0000 N   0  0  0  0  0  0  0  0  0  0  0  0
   -3.3000  -11.6500    0.0000 Cl  0  0  0  0  0  0  0  0  0  0  0  0
   -0.2500   -8.4708    0.0000 O   0  0  0  0  0  0  0  0  0  0  0  0
    2.2083   -9.1708    0.0000 C   0  0  0  0  0  0  0  0  0  0  0  0
    1.6000  -10.2333    0.0000 C   0  0  0  0  0  0  0  0  0  0  0  0
    2.8208   -9.5208    0.0000 C   0  0  0  0  0  0  0  0  0  0  0  0
    2.2125  -10.5875    0.0000 C   0  0  0  0  0  0  0  0  0  0  0  0
    3.4333   -9.1667    0.0000 C   0  0  0  0  0  0  0  0  0  0  0  0
    2.8250  -10.2292    0.0000 C   0  0  0  0  0  0  0  0  0  0  0  0
    4.0500   -9.5167    0.0000 C   0  0  0  0  0  0  0  0  0  0  0  0
    3.4417  -10.5833    0.0000 C   0  0  0  0  0  0  0  0  0  0  0  0
  2  1  1  0
  3  2  2  0
  4  1  2  0
  5  4  1  0
  6 10  1  0
  7  5  2  0
  8  1  1  0
  9  3  1  0
 10  8  2  0
 11 14  1  0
 12  4  1  0
 13  2  1  0
 14 13  2  0
 15  5  1  0
 16 15  1  0
 17 10  1  0
 18  6  1  0
 19  6  1  0
 20  6  1  0
 21  9  1  0
 22 16  1  0
 23 22  1  0
 24 14  1  0
 25 15  1  0
 26 23  1  0
 27 23  1  0
 28 26  1  0
 29 27  1  0
 30 28  1  0
 31 29  1  0
 32 30  1  0
 33 31  1  0
 17 12  2  0
  7  3  1  0
  9 11  2  0
M  END

> <chembl_id>
CHEMBL1107

> <chembl_pref_name>
HALOFANTRINE

$$$$

     RDKit          2D

 31 35  0  0  0  0  0  0  0  0999 V2000
   11.2581  -12.0726    0.0000 F   0  0  0  0  0  0  0  0  0  0  0  0
    9.1585   -8.7448    0.0000 C   0  0  0  0  0  0  0  0  0  0  0  0
   11.1775   -9.6257    0.0000 C   0  0  0  0  0  0  0  0  0  0  0  0
   14.0880  -12.8949    0.0000 O   0  0  0  0  0  0  0  0  0  0  0  0
    9.1518  -10.1649    0.0000 N   0  0  0  0  0  0  0  0  0  0  0  0
   13.3806  -11.6670    0.0000 C   0  0  0  0  0  0  0  0  0  0  0  0
   11.2640  -10.4378    0.0000 N   0  0  0  0  0  0  0  0  0  0  0  0
   10.7879   -8.7414    0.0000 H   0  0  0  0  0  0  0  0  0  0  0  0
   14.8024  -10.8442    0.0000 C   0  0  0  0  0  0  0  0  0  0  0  0
   12.6734  -10.4371    0.0000 C   0  0  0  0  0  0  0  0  0  0  0  0
    9.9705  -10.1649    0.0000 C   0  0  0  0  0  0  0  0  0  0  0  0
   14.8024  -11.6691    0.0000 C   0  0  0  0  0  0  0  0  0  0  0  0
   12.6752  -12.0736    0.0000 C   0  0  0  0  0  0  0  0  0  0  0  0
   14.0905  -10.4284    0.0000 N   0  0  0  0  0  0  0  0  0  0  0  0
   10.3841   -9.4526    0.0000 C   0  0  0  0  0  0  0  0  0  0  0  0
    9.9789   -8.7448    0.0000 C   0  0  0  0  0  0  0  0  0  0  0  0
   16.2201  -11.6726    0.0000 O   0  0  0  0  0  0  0  0  0  0  0  0
    9.5544  -10.8666    0.0000 H   0  0  0  0  0  0  0  0  0  0  0  0
    8.7449   -9.4473    0.0000 C   0  0  0  0  0  0  0  0  0  0  0  0
   11.9594   -9.2141    0.0000 C   0  0  0  0  0  0  0  0  0  0  0  0
   12.6734   -9.6204    0.0000 O   0  0  0  0  0  0  0  0  0  0  0  0
   13.6814   -8.9080    0.0000 C   0  0  0  0  0  0  0  0  0  0  0  0
   11.9657  -11.6649    0.0000 C   0  0  0  0  0  0  0  0  0  0  0  0
   14.0880  -12.0781    0.0000 C   0  0  0  0  0  0  0  0  0  0  0  0
   11.9657  -10.8458    0.0000 C   0  0  0  0  0  0  0  0  0  0  0  0
   14.0905   -9.6117    0.0000 C   0  0  0  0  0  0  0  0  0  0  0  0
   14.4982   -8.9080    0.0000 C   0  0  0  0  0  0  0  0  0  0  0  0
   15.5127  -12.8957    0.0000 O   0  0  0  0  0  0  0  0  0  0  0  0
   13.3806  -10.8422    0.0000 C   0  0  0  0  0  0  0  0  0  0  0  0
   10.5186  -10.7695    0.0000 C   0  0  0  0  0  0  0  0  0  0  0  0
   15.5127  -12.0789    0.0000 C   0  0  0  0  0  0  0  0  0  0  0  0
 10 21  1  0
 12 31  1  0
  9 14  1  0
 29 14  1  0
 14 26  1  0
 11 30  1  0
 15 16  1  0
 21 20  1  0
 13  6  2  0
 11 18  1  6
 25 23  2  0
 27 26  1  0
 31 28  1  0
 24  4  2  0
 31 17  2  0
 26 22  1  0
 16  2  1  0
 23 13  1  0
  3 15  1  0
 25  7  1  0
  2 19  1  0
 22 27  1  0
 19  5  1  0
 29 10  2  0
 12  9  2  0
 10 25  1  0
 30  7  1  0
  6 24  1  0
 24 12  1  0
 15  8  1  6
  7  3  1  0
 11 15  1  0
 11  5  1  0
 23  1  1  0
 29  6  1  0
M  END

> <chembl_id>
CHEMBL32

> <chembl_pref_name>
MOXIFLOXACIN

$$$$

     RDKit          2D

 23 24  0  0  0  0  0  0  0  0999 V2000
   -1.3833   -0.6417    0.0000 C   0  0  0  0  0  0  0  0  0  0  0  0
   -1.7458   -0.0250    0.0000 C   0  0  0  0  0  0  0  0  0  0  0  0
   -1.0333   -0.0250    0.0000 C   0  0  0  0  0  0  0  0  0  0  0  0
   -2.4500   -0.0250    0.0000 C   0  0  0  0  0  0  0  0  0  0  0  0
   -0.7708   -0.9917    0.0000 C   0  0  0  0  0  0  0  0  0  0  0  0
   -1.9958   -1.0000    0.0000 C   0  0  0  0  0  0  0  0  0  0  0  0
   -2.8083    0.5875    0.0000 N   0  0  0  0  0  0  0  0  0  0  0  0
   -1.3958    0.5875    0.0000 O   0  0  0  0  0  0  0  0  0  0  0  0
   -0.3250   -0.0167    0.0000 C   0  0  0  0  0  0  0  0  0  0  0  0
   -3.5208    0.5875    0.0000 C   0  0  0  0  0  0  0  0  0  0  0  0
   -2.4583    1.2083    0.0000 C   0  0  0  0  0  0  0  0  0  0  0  0
   -2.8083   -0.6375    0.0000 C   0  0  0  0  0  0  0  0  0  0  0  0
   -0.7708   -1.7042    0.0000 C   0  0  0  0  0  0  0  0  0  0  0  0
   -0.1625   -0.6375    0.0000 C   0  0  0  0  0  0  0  0  0  0  0  0
   -1.9958   -1.7125    0.0000 C   0  0  0  0  0  0  0  0  0  0  0  0
   -2.6083   -0.6417    0.0000 C   0  0  0  0  0  0  0  0  0  0  0  0
    0.0167    0.6000    0.0000 C   0  0  0  0  0  0  0  0  0  0  0  0
   -3.2208   -1.0000    0.0000 C   0  0  0  0  0  0  0  0  0  0  0  0
   -2.6083   -2.0667    0.0000 C   0  0  0  0  0  0  0  0  0  0  0  0
   -0.1583   -2.0542    0.0000 C   0  0  0  0  0  0  0  0  0  0  0  0
    0.4500   -0.9875    0.0000 C   0  0  0  0  0  0  0  0  0  0  0  0
    0.4542   -1.7000    0.0000 C   0  0  0  0  0  0  0  0  0  0  0  0
   -3.2208   -1.7125    0.0000 C   0  0  0  0  0  0  0  0  0  0  0  0
  2  1  1  0
  3  1  1  0
  4  2  1  0
  5  1  1  0
  6  1  1  0
  7  4  1  0
  8  3  2  0
  9  3  1  0
 10  7  1  0
 11  7  1  0
 12  4  1  0
 13  5  2  0
 14  5  1  0
 15  6  1  0
 16  6  2  0
 17  9  1  0
 18 16  1  0
 19 15  2  0
 20 13  1  0
 21 14  2  0
 22 21  1  0
 23 19  1  0
 23 18  2  0
 22 20  2  0
M  END

> <chembl_id>
CHEMBL651

> <chembl_pref_name>
METHADONE

$$$$

     RDKit          2D

 28 32  0  0  0  0  0  0  0  0999 V2000
  -11.9920   -1.5027    0.0000 C   0  0  0  0  0  0  0  0  0  0  0  0
  -11.2775   -1.0902    0.0000 N   0  0  0  0  0  0  0  0  0  0  0  0
  -11.2775   -0.2652    0.0000 C   0  0  0  0  0  0  0  0  0  0  0  0
  -11.9920    0.1473    0.0000 C   0  0  0  0  0  0  0  0  0  0  0  0
  -12.7064   -0.2652    0.0000 C   0  0  0  0  0  0  0  0  0  0  0  0
  -12.7064   -1.0902    0.0000 C   0  0  0  0  0  0  0  0  0  0  0  0
  -10.5630    0.1473    0.0000 C   0  0  0  0  0  0  0  0  0  0  0  0
   -9.8485   -0.2652    0.0000 C   0  0  0  0  0  0  0  0  0  0  0  0
   -9.8485   -1.0902    0.0000 C   0  0  0  0  0  0  0  0  0  0  0  0
  -10.5630   -1.5027    0.0000 C   0  0  0  0  0  0  0  0  0  0  0  0
   -9.1341   -1.5026    0.0000 O   0  0  0  0  0  0  0  0  0  0  0  0
   -9.1341    0.1474    0.0000 H   0  0  0  0  0  0  0  0  0  0  0  0
  -11.2775    0.5598    0.0000 H   0  0  0  0  0  0  0  0  0  0  0  0
  -13.4209   -0.6777    0.0000 H   0  0  0  0  0  0  0  0  0  0  0  0
  -13.1189    0.4493    0.0000 O   0  0  0  0  0  0  0  0  0  0  0  0
  -13.9439    0.4493    0.0000 C   0  0  0  0  0  0  0  0  0  0  0  0
  -14.3564    1.1638    0.0000 C   0  0  0  0  0  0  0  0  0  0  0  0
  -14.3564   -0.2652    0.0000 O   0  0  0  0  0  0  0  0  0  0  0  0
  -14.0209    1.9175    0.0000 C   0  0  0  0  0  0  0  0  0  0  0  0
  -14.6340    2.4695    0.0000 N   0  0  0  0  0  0  0  0  0  0  0  0
  -15.3484    2.0570    0.0000 C   0  0  0  0  0  0  0  0  0  0  0  0
  -15.1769    1.2500    0.0000 C   0  0  0  0  0  0  0  0  0  0  0  0
  -16.1331    2.3119    0.0000 C   0  0  0  0  0  0  0  0  0  0  0  0
  -16.7462    1.7599    0.0000 C   0  0  0  0  0  0  0  0  0  0  0  0
  -16.5746    0.9529    0.0000 C   0  0  0  0  0  0  0  0  0  0  0  0
  -15.7900    0.6980    0.0000 C   0  0  0  0  0  0  0  0  0  0  0  0
  -11.9920   -2.3277    0.0000 H   0  0  0  0  0  0  0  0  0  0  0  0
  -11.3510   -1.8549    0.0000 C   0  0  0  0  0  0  0  0  0  0  0  0
  1  2  1  0
  3  4  1  0
  4  5  1  0
  5  6  1  0
  6  1  1  0
 10  2  1  0
  2  3  1  0
  3  7  1  0
  7  8  1  0
  8  9  1  0
  9 10  1  0
  9 11  2  0
  8 12  1  1
  3 13  1  1
  5 14  1  1
  5 15  1  0
 15 16  1  0
 16 17  1  0
 16 18  2  0
 17 19  2  0
 17 22  1  0
 19 20  1  0
 20 21  1  0
 21 23  1  0
 22 21  2  0
 26 22  1  0
 23 24  2  0
 24 25  1  0
 25 26  2  0
  1 27  1  1
  1 28  1  0
  8 28  1  0
M  END

> <chembl_id>
CHEMBL2368925

> <chembl_pref_name>
DOLASETRON

$$$$

     RDKit          2D

 36 40  0  0  0  0  0  0  0  0999 V2000
    3.6375   -0.9049    0.0000 C   0  0  0  0  0  0  0  0  0  0  0  0
    2.5973   -1.5031    0.0000 C   0  0  0  0  0  0  0  0  0  0  0  0
    2.5956   -2.7031    0.0000 O   0  0  0  0  0  0  0  0  0  0  0  0
    1.2990   -0.7500    0.0000 N   0  0  0  0  0  0  0  0  0  0  0  0
    1.2990    0.7500    0.0000 C   0  0  0  0  0  0  0  0  0  0  0  0
    0.0000    1.5000    0.0000 C   0  0  0  0  0  0  0  0  0  0  0  0
   -1.2990    0.7500    0.0000 N   0  0  0  0  0  0  0  0  0  0  0  0
   -1.2990   -0.7500    0.0000 C   0  0  0  0  0  0  0  0  0  0  0  0
    0.0000   -1.5000    0.0000 C   0  0  0  0  0  0  0  0  0  0  0  0
   -2.5987    1.5004    0.0000 C   0  0  0  0  0  0  0  0  0  0  0  0
   -2.6012    3.0004    0.0000 C   0  0  0  0  0  0  0  0  0  0  0  0
   -3.9015    3.7484    0.0000 C   0  0  0  0  0  0  0  0  0  0  0  0
   -5.1993    2.9963    0.0000 C   0  0  0  0  0  0  0  0  0  0  0  0
   -6.5018    3.7420    0.0000 O   0  0  0  0  0  0  0  0  0  0  0  0
   -7.7993    2.9876    0.0000 C   0  0  0  0  0  0  0  0  0  0  0  0
   -9.1017    3.7333    0.0000 C   0  0  0  0  0  0  0  0  0  0  0  0
  -10.4521    3.1101    0.0000 C   0  0  0  0  0  0  0  0  0  0  0  0
  -11.4576    4.2232    0.0000 O   0  0  0  0  0  0  0  0  0  0  0  0
  -10.7097    5.5235    0.0000 C   0  0  0  0  0  0  0  0  0  0  0  0
  -12.1915    5.6529    0.0000 C   0  0  0  0  0  0  0  0  0  0  0  0
  -13.0723    4.4376    0.0000 N   0  0  0  0  0  0  0  0  0  0  0  0
  -14.5587    4.4336    0.0000 C   0  0  0  0  0  0  0  0  0  0  0  0
  -15.0012    3.0003    0.0000 C   0  0  0  0  0  0  0  0  0  0  0  0
  -13.7748    2.1366    0.0000 N   0  0  0  0  0  0  0  0  0  0  0  0
  -12.5744    3.0360    0.0000 C   0  0  0  0  0  0  0  0  0  0  0  0
   -9.2420    5.2139    0.0000 O   0  0  0  0  0  0  0  0  0  0  0  0
   -9.8181    6.7146    0.0000 C   0  0  0  0  0  0  0  0  0  0  0  0
   -8.3287    6.5365    0.0000 C   0  0  0  0  0  0  0  0  0  0  0  0
   -7.4298    7.7374    0.0000 C   0  0  0  0  0  0  0  0  0  0  0  0
   -8.0203    9.1162    0.0000 C   0  0  0  0  0  0  0  0  0  0  0  0
   -7.3012   10.0769    0.0000 Cl  0  0  0  0  0  0  0  0  0  0  0  0
   -9.5097    9.2943    0.0000 C   0  0  0  0  0  0  0  0  0  0  0  0
  -10.4086    8.0934    0.0000 C   0  0  0  0  0  0  0  0  0  0  0  0
  -11.6001    8.2359    0.0000 Cl  0  0  0  0  0  0  0  0  0  0  0  0
   -5.1969    1.4963    0.0000 C   0  0  0  0  0  0  0  0  0  0  0  0
   -3.8967    0.7484    0.0000 C   0  0  0  0  0  0  0  0  0  0  0  0
  1  2  1  0
  2  3  2  0
  2  4  1  0
  4  5  1  0
  5  6  1  0
  6  7  1  0
  7  8  1  0
  8  9  1  0
  9  4  1  0
  7 10  1  0
 10 11  2  0
 11 12  1  0
 12 13  2  0
 13 14  1  0
 14 15  1  0
 15 16  1  0
 16 17  1  0
 17 18  1  0
 18 19  1  0
 19 20  1  0
 20 21  1  0
 21 22  1  0
 22 23  2  0
 23 24  1  0
 24 25  2  0
 25 21  1  0
 19 26  1  0
 26 16  1  0
 19 27  1  0
 27 28  2  0
 28 29  1  0
 29 30  2  0
 30 31  1  0
 30 32  1  0
 32 33  2  0
 33 27  1  0
 33 34  1  0
 13 35  1  0
 35 36  2  0
 36 10  1  0
M  END

> <chembl_id>
CHEMBL157101

> <chembl_pref_name>
KETOCONAZOLE

$$$$

     RDKit          2D

 24 27  0  0  1  0  0  0  0  0999 V2000
    2.5956   -2.7031    0.0000 C   0  0  0  0  0  0  0  0  0  0  0  0
    2.5973   -1.5031    0.0000 O   0  0  0  0  0  0  0  0  0  0  0  0
    1.2990   -0.7500    0.0000 C   0  0  0  0  0  0  0  0  0  0  0  0
    1.2990    0.7500    0.0000 C   0  0  0  0  0  0  0  0  0  0  0  0
    0.0000    1.5000    0.0000 C   0  0  0  0  0  0  0  0  0  0  0  0
   -1.2990    0.7500    0.0000 C   0  0  0  0  0  0  0  0  0  0  0  0
   -2.5981    1.5000    0.0000 N   0  0  0  0  0  0  0  0  0  0  0  0
   -3.8971    0.7500    0.0000 C   0  0  0  0  0  0  0  0  0  0  0  0
   -3.8971   -0.7500    0.0000 C   0  0  0  0  0  0  0  0  0  0  0  0
   -2.5981   -1.5000    0.0000 C   0  0  0  0  0  0  0  0  0  0  0  0
   -2.6001   -3.0008    0.0000 C   0  0  0  0  0  0  0  0  0  0  0  0
   -3.6403   -3.5991    0.0000 O   0  0  0  0  0  0  0  0  0  0  0  0
   -1.3018   -3.7538    0.0000 C   0  0  0  0  0  0  0  0  0  0  0  0
    0.0504   -3.7772    0.0000 C   0  0  0  0  0  0  0  0  0  0  0  0
    0.7490   -4.8836    0.0000 C   0  0  0  0  0  0  0  0  0  0  0  0
    0.4079   -6.4955    0.0000 C   0  0  0  0  0  0  0  0  0  0  0  0
   -1.0295   -6.5002    0.0000 C   0  0  0  0  0  0  0  0  0  0  0  0
   -0.5882   -4.9489    0.0000 N   0  0  0  0  0  0  0  0  0  0  0  0
    1.1725   -4.4592    0.0000 C   0  0  0  0  0  0  0  0  0  0  0  0
    2.3256   -4.6763    0.0000 C   0  0  0  0  0  0  0  0  0  0  0  0
    3.8088   -4.8069    0.0000 C   0  0  0  0  0  0  0  0  0  0  0  0
    4.4968   -3.8238    0.0000 C   0  0  0  0  0  0  0  0  0  0  0  0
   -1.2990   -0.7500    0.0000 C   0  0  0  0  0  0  0  0  0  0  0  0
    0.0000   -1.5000    0.0000 C   0  0  0  0  0  0  0  0  0  0  0  0
  1  2  1  0
  2  3  1  0
  3  4  2  0
  4  5  1  0
  5  6  2  0
  6  7  1  0
  7  8  2  0
  8  9  1  0
  9 10  2  0
 10 11  1  0
 11 12  1  1
 11 13  1  0
 13 14  1  1
 15 14  1  1
 15 16  1  0
 16 17  1  0
 17 18  1  0
 18 13  1  0
 18 19  1  0
 19 20  1  0
 20 15  1  0
 20 21  1  6
 21 22  2  0
 10 23  1  0
 23  6  1  0
 23 24  2  0
 24  3  1  0
M  END

> <chembl_id>
CHEMBL1294

> <chembl_pref_name>
QUINIDINE

$$$$

     RDKit          2D

 27 30  0  0  0  0  0  0  0  0999 V2000
    9.9860   -4.2950    0.0000 C   0  0  0  0  0  0  0  0  0  0  0  0
    9.5757   -3.1673    0.0000 C   0  0  0  0  0  0  0  0  0  0  0  0
    8.0979   -2.9056    0.0000 O   0  0  0  0  0  0  0  0  0  0  0  0
    7.5847   -1.4952    0.0000 C   0  0  0  0  0  0  0  0  0  0  0  0
    8.3565   -0.5763    0.0000 O   0  0  0  0  0  0  0  0  0  0  0  0
    6.1069   -1.2335    0.0000 N   0  0  0  0  0  0  0  0  0  0  0  0
    5.5920    0.1754    0.0000 C   0  0  0  0  0  0  0  0  0  0  0  0
    4.1145    0.4339    0.0000 C   0  0  0  0  0  0  0  0  0  0  0  0
    3.1484   -0.7186    0.0000 C   0  0  0  0  0  0  0  0  0  0  0  0
    1.6852   -0.3846    0.0000 C   0  0  0  0  0  0  0  0  0  0  0  0
    1.3514    1.0778    0.0000 C   0  0  0  0  0  0  0  0  0  0  0  0
    2.5913    1.9239    0.0000 C   0  0  0  0  0  0  0  0  0  0  0  0
    2.4792    3.4197    0.0000 C   0  0  0  0  0  0  0  0  0  0  0  0
    1.1278    4.0705    0.0000 C   0  0  0  0  0  0  0  0  0  0  0  0
    1.0381    5.2671    0.0000 Cl  0  0  0  0  0  0  0  0  0  0  0  0
   -0.1116    3.2255    0.0000 C   0  0  0  0  0  0  0  0  0  0  0  0
    0.0000    1.7286    0.0000 C   0  0  0  0  0  0  0  0  0  0  0  0
   -1.3515    1.0777    0.0000 C   0  0  0  0  0  0  0  0  0  0  0  0
   -1.6852   -0.3847    0.0000 C   0  0  0  0  0  0  0  0  0  0  0  0
   -0.7500   -1.5574    0.0000 C   0  0  0  0  0  0  0  0  0  0  0  0
   -1.5000   -2.8577    0.0000 C   0  0  0  0  0  0  0  0  0  0  0  0
   -0.7500   -4.1567    0.0000 C   0  0  0  0  0  0  0  0  0  0  0  0
    0.7500   -4.1567    0.0000 C   0  0  0  0  0  0  0  0  0  0  0  0
    1.5000   -2.8577    0.0000 N   0  0  0  0  0  0  0  0  0  0  0  0
    0.7500   -1.5574    0.0000 C   0  0  0  0  0  0  0  0  0  0  0  0
    3.6667   -2.1252    0.0000 C   0  0  0  0  0  0  0  0  0  0  0  0
    5.1442   -2.3838    0.0000 C   0  0  0  0  0  0  0  0  0  0  0  0
  1  2  1  0
  2  3  1  0
  3  4  1  0
  4  5  2  0
  4  6  1  0
  6  7  1  0
  7  8  1  0
  8  9  1  0
  9 10  2  0
 10 11  1  0
 11 12  2  0
 12 13  1  0
 13 14  2  0
 14 15  1  0
 14 16  1  0
 16 17  2  0
 17 11  1  0
 17 18  1  0
 18 19  1  0
 19 20  1  0
 20 21  2  0
 21 22  1  0
 22 23  2  0
 23 24  1  0
 24 25  2  0
 25 10  1  0
 25 20  1  0
  9 26  1  0
 26 27  1  0
 27  6  1  0
M  END

> <chembl_id>
CHEMBL998

> <chembl_pref_name>
LORATADINE

$$$$

     RDKit          2D

 21 23  0  0  0  0  0  0  0  0999 V2000
    6.6622   -4.1979    0.0000 C   0  0  0  0  0  0  0  0  0  0  0  0
    5.4929   -3.9285    0.0000 N   0  0  0  0  0  0  0  0  0  0  0  0
    4.6751   -4.8068    0.0000 C   0  0  0  0  0  0  0  0  0  0  0  0
    5.0525   -2.4938    0.0000 C   0  0  0  0  0  0  0  0  0  0  0  0
    3.5900   -2.1568    0.0000 C   0  0  0  0  0  0  0  0  0  0  0  0
    3.1497   -0.7220    0.0000 C   0  0  0  0  0  0  0  0  0  0  0  0
    1.6852   -0.3846    0.0000 C   0  0  0  0  0  0  0  0  0  0  0  0
    1.3514    1.0778    0.0000 C   0  0  0  0  0  0  0  0  0  0  0  0
    2.5913    1.9239    0.0000 C   0  0  0  0  0  0  0  0  0  0  0  0
    2.4792    3.4197    0.0000 C   0  0  0  0  0  0  0  0  0  0  0  0
    1.1278    4.0705    0.0000 C   0  0  0  0  0  0  0  0  0  0  0  0
   -0.1116    3.2255    0.0000 C   0  0  0  0  0  0  0  0  0  0  0  0
    0.0000    1.7286    0.0000 C   0  0  0  0  0  0  0  0  0  0  0  0
   -1.3515    1.0777    0.0000 C   0  0  0  0  0  0  0  0  0  0  0  0
   -1.6852   -0.3847    0.0000 C   0  0  0  0  0  0  0  0  0  0  0  0
   -0.7500   -1.5574    0.0000 C   0  0  0  0  0  0  0  0  0  0  0  0
   -1.5000   -2.8577    0.0000 C   0  0  0  0  0  0  0  0  0  0  0  0
   -0.7500   -4.1567    0.0000 C   0  0  0  0  0  0  0  0  0  0  0  0
    0.7500   -4.1567    0.0000 C   0  0  0  0  0  0  0  0  0  0  0  0
    1.5000   -2.8577    0.0000 C   0  0  0  0  0  0  0  0  0  0  0  0
    0.7500   -1.5574    0.0000 C   0  0  0  0  0  0  0  0  0  0  0  0
  1  2  1  0
  2  3  1  0
  2  4  1  0
  4  5  1  0
  5  6  1  0
  6  7  2  0
  7  8  1  0
  8  9  2  0
  9 10  1  0
 10 11  2  0
 11 12  1  0
 12 13  2  0
 13  8  1  0
 13 14  1  0
 14 15  1  0
 15 16  1  0
 16 17  2  0
 17 18  1  0
 18 19  2  0
 19 20  1  0
 20 21  2  0
 21  7  1  0
 21 16  1  0
M  END

> <chembl_id>
CHEMBL629

> <chembl_pref_name>
AMITRIPTYLINE

$$$$

     RDKit          2D

 33 34  0  0  0  0  0  0  0  0999 V2000
    2.9538   -0.0408    0.0000 O   0  0  0  0  0  0  0  0  0  0  0  0
    2.9538    1.6092    0.0000 O   0  0  0  0  0  0  0  0  0  0  0  0
   12.9564   -0.0408    0.0000 O   0  0  0  0  0  0  0  0  0  0  0  0
   12.9564   -1.6908    0.0000 O   0  0  0  0  0  0  0  0  0  0  0  0
    6.6366    1.3881    0.0000 N   0  0  0  0  0  0  0  0  0  0  0  0
    8.6695   -0.0408    0.0000 N   0  0  0  0  0  0  0  0  0  0  0  0
    5.8116   -0.0408    0.0000 C   0  0  0  0  0  0  0  0  0  0  0  0
    5.0972    0.3717    0.0000 C   0  0  0  0  0  0  0  0  0  0  0  0
    5.3991   -0.7553    0.0000 C   0  0  0  0  0  0  0  0  0  0  0  0
    4.3827   -0.0408    0.0000 C   0  0  0  0  0  0  0  0  0  0  0  0
    6.5261   -0.4533    0.0000 C   0  0  0  0  0  0  0  0  0  0  0  0
    3.6682    0.3717    0.0000 C   0  0  0  0  0  0  0  0  0  0  0  0
    5.0972    1.1967    0.0000 C   0  0  0  0  0  0  0  0  0  0  0  0
    6.2241    0.6736    0.0000 C   0  0  0  0  0  0  0  0  0  0  0  0
    3.6682    1.1967    0.0000 C   0  0  0  0  0  0  0  0  0  0  0  0
    4.3827    1.6092    0.0000 C   0  0  0  0  0  0  0  0  0  0  0  0
    7.2406   -0.0408    0.0000 C   0  0  0  0  0  0  0  0  0  0  0  0
    5.8116   -1.4698    0.0000 C   0  0  0  0  0  0  0  0  0  0  0  0
    4.5741   -0.7553    0.0000 C   0  0  0  0  0  0  0  0  0  0  0  0
   12.2419   -0.4533    0.0000 C   0  0  0  0  0  0  0  0  0  0  0  0
   12.2419   -1.2783    0.0000 C   0  0  0  0  0  0  0  0  0  0  0  0
   10.8129   -0.4533    0.0000 C   0  0  0  0  0  0  0  0  0  0  0  0
    7.9551   -0.4533    0.0000 C   0  0  0  0  0  0  0  0  0  0  0  0
   11.5274   -0.0408    0.0000 C   0  0  0  0  0  0  0  0  0  0  0  0
   11.5274   -1.6908    0.0000 C   0  0  0  0  0  0  0  0  0  0  0  0
   10.8129   -1.2783    0.0000 C   0  0  0  0  0  0  0  0  0  0  0  0
   10.0985   -0.0408    0.0000 C   0  0  0  0  0  0  0  0  0  0  0  0
    9.3840   -0.4533    0.0000 C   0  0  0  0  0  0  0  0  0  0  0  0
    2.2393    0.3717    0.0000 C   0  0  0  0  0  0  0  0  0  0  0  0
    2.9538    2.4342    0.0000 C   0  0  0  0  0  0  0  0  0  0  0  0
    8.6695    0.7842    0.0000 C   0  0  0  0  0  0  0  0  0  0  0  0
   12.9564    0.7842    0.0000 C   0  0  0  0  0  0  0  0  0  0  0  0
   13.6708   -1.2783    0.0000 C   0  0  0  0  0  0  0  0  0  0  0  0
  1 12  1  0
  1 29  1  0
  2 15  1  0
  2 30  1  0
  3 20  1  0
  3 32  1  0
  4 21  1  0
  4 33  1  0
  5 14  3  0
  6 23  1  0
  6 28  1  0
  6 31  1  0
  7  8  1  0
  7  9  1  0
  7 11  1  0
  7 14  1  0
  8 10  1  0
  8 13  2  0
  9 18  1  0
  9 19  1  0
 10 12  2  0
 11 17  1  0
 12 15  1  0
 13 16  1  0
 15 16  2  0
 17 23  1  0
 20 21  1  0
 20 24  2  0
 21 25  2  0
 22 24  1  0
 22 26  2  0
 22 27  1  0
 25 26  1  0
 27 28  1  0
M  END

> <chembl_id>
CHEMBL6966

> <chembl_pref_name>
VERAPAMIL

$$$$

     RDKit          2D

 33 36  0  0  0  0  0  0  0  0999 V2000
    2.1000   -0.0042    0.0000 C   0  0  0  0  0  0  0  0  0  0  0  0
    2.1000    0.7000    0.0000 C   0  0  0  0  0  0  0  0  0  0  0  0
   -1.5375   -0.0042    0.0000 S   0  0  0  0  0  0  0  0  0  0  0  0
    1.4917   -0.3667    0.0000 N   0  0  0  0  0  0  0  0  0  0  0  0
    0.8792   -0.0042    0.0000 C   0  0  0  0  0  0  0  0  0  0  0  0
    2.8042    0.9083    0.0000 N   0  0  0  0  0  0  0  0  0  0  0  0
    1.4917    1.0625    0.0000 C   0  0  0  0  0  0  0  0  0  0  0  0
    0.8792    0.6833    0.0000 N   0  0  0  0  0  0  0  0  0  0  0  0
    3.2042    0.3458    0.0000 N   0  0  0  0  0  0  0  0  0  0  0  0
    2.8042   -0.2417    0.0000 C   0  0  0  0  0  0  0  0  0  0  0  0
    0.2875   -0.3750    0.0000 C   0  0  0  0  0  0  0  0  0  0  0  0
   -2.1583   -0.3750    0.0000 N   0  0  0  0  0  0  0  0  0  0  0  0
   -0.9333   -0.3750    0.0000 C   0  0  0  0  0  0  0  0  0  0  0  0
   -0.3208   -0.0333    0.0000 C   0  0  0  0  0  0  0  0  0  0  0  0
   -1.1875    0.6083    0.0000 O   0  0  0  0  0  0  0  0  0  0  0  0
   -1.8958    0.6083    0.0000 O   0  0  0  0  0  0  0  0  0  0  0  0
   -3.3958   -1.0917    0.0000 N   0  0  0  0  0  0  0  0  0  0  0  0
   -2.7833   -0.0042    0.0000 C   0  0  0  0  0  0  0  0  0  0  0  0
   -2.1583   -1.0917    0.0000 C   0  0  0  0  0  0  0  0  0  0  0  0
    0.2875   -1.1125    0.0000 C   0  0  0  0  0  0  0  0  0  0  0  0
    1.4917    1.7708    0.0000 O   0  0  0  0  0  0  0  0  0  0  0  0
   -0.9333   -1.1125    0.0000 C   0  0  0  0  0  0  0  0  0  0  0  0
   -0.3208   -1.4542    0.0000 C   0  0  0  0  0  0  0  0  0  0  0  0
   -3.3958   -0.3750    0.0000 C   0  0  0  0  0  0  0  0  0  0  0  0
   -2.7833   -1.4417    0.0000 C   0  0  0  0  0  0  0  0  0  0  0  0
    3.0750    1.5750    0.0000 C   0  0  0  0  0  0  0  0  0  0  0  0
    2.8042   -0.9500    0.0000 C   0  0  0  0  0  0  0  0  0  0  0  0
    0.8792   -1.4542    0.0000 O   0  0  0  0  0  0  0  0  0  0  0  0
   -3.9958   -1.4292    0.0000 C   0  0  0  0  0  0  0  0  0  0  0  0
    1.4958   -1.1000    0.0000 C   0  0  0  0  0  0  0  0  0  0  0  0
    3.4167   -1.3125    0.0000 C   0  0  0  0  0  0  0  0  0  0  0  0
    2.1125   -1.4500    0.0000 C   0  0  0  0  0  0  0  0  0  0  0  0
    4.0375   -0.9542    0.0000 C   0  0  0  0  0  0  0  0  0  0  0  0
  2  1  2  0
  3 13  1  0
  4  1  1  0
  5  4  2  0
  6  2  1  0
  7  2  1  0
  8  5  1  0
  9 10  2  0
 10  1  1  0
 11  5  1  0
 12  3  1  0
 13 14  2  0
 14 11  1  0
 15  3  2  0
 16  3  2  0
 17 25  1  0
 18 12  1  0
 19 12  1  0
 20 11  2  0
 21  7  2  0
 22 23  2  0
 23 20  1  0
 24 18  1  0
 25 19  1  0
 26  6  1  0
 27 10  1  0
 28 20  1  0
 29 17  1  0
 30 28  1  0
 31 27  1  0
 32 30  1  0
 33 31  1  0
  9  6  1  0
  8  7  1  0
 22 13  1  0
 17 24  1  0
M  END

> <chembl_id>
CHEMBL192

> <chembl_pref_name>
SILDENAFIL

$$$$

     RDKit          2D

 23 26  0  0  0  0  0  0  0  0999 V2000
    5.1167   -2.5917    0.0000 N   0  0  0  0  0  0  0  0  0  0  0  0
    5.9125   -2.7292    0.0000 C   0  0  0  0  0  0  0  0  0  0  0  0
    6.2667   -3.5042    0.0000 C   0  0  0  0  0  0  0  0  0  0  0  0
    4.6042   -3.0792    0.0000 C   0  0  0  0  0  0  0  0  0  0  0  0
    5.0917   -4.3792    0.0000 N   0  0  0  0  0  0  0  0  0  0  0  0
    6.4125   -2.1042    0.0000 N   0  0  0  0  0  0  0  0  0  0  0  0
    5.8792   -4.2500    0.0000 C   0  0  0  0  0  0  0  0  0  0  0  0
    4.6042   -3.8917    0.0000 C   0  0  0  0  0  0  0  0  0  0  0  0
    3.9042   -2.6792    0.0000 C   0  0  0  0  0  0  0  0  0  0  0  0
    7.4042   -0.8292    0.0000 N   0  0  0  0  0  0  0  0  0  0  0  0
    7.2042   -2.2250    0.0000 C   0  0  0  0  0  0  0  0  0  0  0  0
    6.0917   -1.3542    0.0000 C   0  0  0  0  0  0  0  0  0  0  0  0
    3.9042   -4.3000    0.0000 C   0  0  0  0  0  0  0  0  0  0  0  0
    3.2125   -3.0792    0.0000 C   0  0  0  0  0  0  0  0  0  0  0  0
    6.6000   -0.7125    0.0000 C   0  0  0  0  0  0  0  0  0  0  0  0
    7.7042   -1.5875    0.0000 C   0  0  0  0  0  0  0  0  0  0  0  0
    7.0917   -3.4667    0.0000 C   0  0  0  0  0  0  0  0  0  0  0  0
    3.2125   -3.8917    0.0000 C   0  0  0  0  0  0  0  0  0  0  0  0
    2.5042   -2.6792    0.0000 Cl  0  0  0  0  0  0  0  0  0  0  0  0
    6.3292   -4.9500    0.0000 C   0  0  0  0  0  0  0  0  0  0  0  0
    7.9667   -0.2542    0.0000 C   0  0  0  0  0  0  0  0  0  0  0  0
    7.5417   -4.1667    0.0000 C   0  0  0  0  0  0  0  0  0  0  0  0
    7.1667   -4.9042    0.0000 C   0  0  0  0  0  0  0  0  0  0  0  0
  2  1  2  0
  3  2  1  0
  4  1  1  0
  5  8  1  0
  6  2  1  0
  7  3  2  0
  8  4  1  0
  9  4  2  0
 10 15  1  0
 11  6  1  0
 12  6  1  0
 13  8  2  0
 14  9  1  0
 15 12  1  0
 16 11  1  0
 17  3  1  0
 18 14  2  0
 19 14  1  0
 20  7  1  0
 21 10  1  0
 22 17  2  0
 23 22  1  0
  5  7  1  0
 13 18  1  0
 16 10  1  0
 20 23  2  0
M  END

> <chembl_id>
CHEMBL42

> <chembl_pref_name>
CLOZAPINE

$$$$

     RDKit          2D

 26 27  0  0  0  0  0  0  0  0999 V2000
   -3.8542   -5.5875    0.0000 C   0  0  0  0  0  0  0  0  0  0  0  0
   -3.8542   -6.4125    0.0000 C   0  0  0  0  0  0  0  0  0  0  0  0
   -3.1421   -6.8208    0.0000 N   0  0  0  0  0  0  0  0  0  0  0  0
   -2.4301   -6.4125    0.0000 C   0  0  0  0  0  0  0  0  0  0  0  0
   -2.4301   -5.5875    0.0000 C   0  0  0  0  0  0  0  0  0  0  0  0
   -3.1421   -5.1708    0.0000 C   0  0  0  0  0  0  0  0  0  0  0  0
   -3.1417   -4.3467    0.0000 C   0  0  0  0  0  0  0  0  0  0  0  0
   -2.4256   -3.9348    0.0000 C   0  0  0  0  0  0  0  0  0  0  0  0
   -2.4252   -3.1106    0.0000 C   0  0  0  0  0  0  0  0  0  0  0  0
   -3.1403   -2.6972    0.0000 C   0  0  0  0  0  0  0  0  0  0  0  0
   -3.8571   -3.1142    0.0000 C   0  0  0  0  0  0  0  0  0  0  0  0
   -3.8539   -3.9370    0.0000 C   0  0  0  0  0  0  0  0  0  0  0  0
   -4.5698   -5.1771    0.0000 C   0  0  0  0  0  0  0  0  0  0  0  0
   -4.5723   -4.3521    0.0000 O   0  0  0  0  0  0  0  0  0  0  0  0
   -5.2831   -5.5917    0.0000 O   0  0  0  0  0  0  0  0  0  0  0  0
   -4.5680   -6.8260    0.0000 C   0  0  0  0  0  0  0  0  0  0  0  0
   -1.7163   -6.8260    0.0000 C   0  0  0  0  0  0  0  0  0  0  0  0
   -1.7145   -5.1771    0.0000 C   0  0  0  0  0  0  0  0  0  0  0  0
   -1.0012   -5.5917    0.0000 O   0  0  0  0  0  0  0  0  0  0  0  0
   -1.7120   -4.3521    0.0000 O   0  0  0  0  0  0  0  0  0  0  0  0
   -0.2855   -5.1813    0.0000 C   0  0  0  0  0  0  0  0  0  0  0  0
   -1.7078   -2.6963    0.0000 N   0  0  0  0  0  0  0  0  0  0  0  0
   -1.7074   -1.8713    0.0000 O   0  0  0  0  0  0  0  0  0  0  0  0
   -0.9935   -3.1091    0.0000 O   0  0  0  0  0  0  0  0  0  0  0  0
    0.4277   -5.5959    0.0000 C   0  0  0  0  0  0  0  0  0  0  0  0
   -5.9988   -5.1813    0.0000 C   0  0  0  0  0  0  0  0  0  0  0  0
  5  6  1  0
  1 13  1  0
 13 14  2  0
  1  2  2  0
 13 15  1  0
  7  8  2  0
  2 16  1  0
  1  6  1  0
  4 17  1  0
  8  9  1  0
  5 18  1  0
  2  3  1  0
 18 19  1  0
  9 10  2  0
 18 20  2  0
  3  4  1  0
 19 21  1  0
 10 11  1  0
  4  5  2  0
 11 12  2  0
 22 23  2  0
 22 24  1  0
  9 22  1  0
 12  7  1  0
 21 25  1  0
  6  7  1  0
 15 26  1  0
M  CHG  2  22   1  24  -1
M  END

> <chembl_id>
CHEMBL475534

> <chembl_pref_name>
NITRENDIPINE

$$$$

     RDKit          2D

 22 25  0  0  0  0  0  0  0  0999 V2000
    7.2889   -1.4403    0.0000 C   0  0  0  0  0  0  0  0  0  0  0  0
    6.1069   -1.2335    0.0000 N   0  0  0  0  0  0  0  0  0  0  0  0
    5.5920    0.1754    0.0000 C   0  0  0  0  0  0  0  0  0  0  0  0
    4.1145    0.4339    0.0000 C   0  0  0  0  0  0  0  0  0  0  0  0
    3.1484   -0.7186    0.0000 N   0  0  0  0  0  0  0  0  0  0  0  0
    3.6667   -2.1252    0.0000 C   0  0  0  0  0  0  0  0  0  0  0  0
    5.1442   -2.3838    0.0000 C   0  0  0  0  0  0  0  0  0  0  0  0
    1.6852   -0.3846    0.0000 C   0  0  0  0  0  0  0  0  0  0  0  0
    1.3514    1.0778    0.0000 N   0  0  0  0  0  0  0  0  0  0  0  0
    0.0000    1.7286    0.0000 C   0  0  0  0  0  0  0  0  0  0  0  0
    0.1115    3.2255    0.0000 C   0  0  0  0  0  0  0  0  0  0  0  0
   -1.1278    4.0705    0.0000 C   0  0  0  0  0  0  0  0  0  0  0  0
   -2.4793    3.4196    0.0000 C   0  0  0  0  0  0  0  0  0  0  0  0
   -2.5914    1.9238    0.0000 C   0  0  0  0  0  0  0  0  0  0  0  0
   -1.3515    1.0777    0.0000 C   0  0  0  0  0  0  0  0  0  0  0  0
   -1.6852   -0.3847    0.0000 N   0  0  0  0  0  0  0  0  0  0  0  0
   -0.7500   -1.5574    0.0000 C   0  0  0  0  0  0  0  0  0  0  0  0
   -1.2135   -2.9844    0.0000 S   0  0  0  0  0  0  0  0  0  0  0  0
    0.0000   -3.8661    0.0000 C   0  0  0  0  0  0  0  0  0  0  0  0
    0.0000   -5.0661    0.0000 C   0  0  0  0  0  0  0  0  0  0  0  0
    1.2135   -2.9844    0.0000 C   0  0  0  0  0  0  0  0  0  0  0  0
    0.7500   -1.5574    0.0000 C   0  0  0  0  0  0  0  0  0  0  0  0
  1  2  1  0
  2  3  1  0
  3  4  1  0
  4  5  1  0
  5  6  1  0
  6  7  1  0
  7  2  1  0
  5  8  1  0
  8  9  2  0
  9 10  1  0
 10 11  2  0
 11 12  1  0
 12 13  2  0
 13 14  1  0
 14 15  2  0
 15 10  1  0
 15 16  1  0
 16 17  1  0
 17 18  1  0
 18 19  1  0
 19 20  1  0
 19 21  2  0
 21 22  1  0
 22  8  1  0
 22 17  2  0
M  END

> <chembl_id>
CHEMBL715

> <chembl_pref_name>
OLANZAPINE

$$$$

     RDKit          2D

 22 25  0  0  0  0  0  0  0  0999 V2000
    5.4992   -2.5362    0.0000 C   0  0  0  0  0  0  0  0  0  0  0  0
    5.2526   -1.3618    0.0000 C   0  0  0  0  0  0  0  0  0  0  0  0
    6.2524   -0.2436    0.0000 N   0  0  0  0  0  0  0  0  0  0  0  0
    5.4979    1.0528    0.0000 C   0  0  0  0  0  0  0  0  0  0  0  0
    4.0317    0.7359    0.0000 N   0  0  0  0  0  0  0  0  0  0  0  0
    3.8990   -0.7455    0.0000 C   0  0  0  0  0  0  0  0  0  0  0  0
    2.6003   -1.4977    0.0000 C   0  0  0  0  0  0  0  0  0  0  0  0
    1.2990   -0.7500    0.0000 N   0  0  0  0  0  0  0  0  0  0  0  0
    1.2990    0.7500    0.0000 C   0  0  0  0  0  0  0  0  0  0  0  0
    0.0000    1.5000    0.0000 C   0  0  0  0  0  0  0  0  0  0  0  0
   -1.2990    0.7500    0.0000 C   0  0  0  0  0  0  0  0  0  0  0  0
   -1.2990   -0.7500    0.0000 C   0  0  0  0  0  0  0  0  0  0  0  0
    0.0000   -1.5000    0.0000 C   0  0  0  0  0  0  0  0  0  0  0  0
    0.0000   -2.7000    0.0000 O   0  0  0  0  0  0  0  0  0  0  0  0
   -2.7248   -1.2135    0.0000 C   0  0  0  0  0  0  0  0  0  0  0  0
   -3.3339   -2.5831    0.0000 C   0  0  0  0  0  0  0  0  0  0  0  0
   -4.8256   -2.7399    0.0000 C   0  0  0  0  0  0  0  0  0  0  0  0
   -5.7073   -1.5264    0.0000 C   0  0  0  0  0  0  0  0  0  0  0  0
   -5.0972   -0.1561    0.0000 C   0  0  0  0  0  0  0  0  0  0  0  0
   -3.6065    0.0000    0.0000 C   0  0  0  0  0  0  0  0  0  0  0  0
   -2.7248    1.2135    0.0000 N   0  0  0  0  0  0  0  0  0  0  0  0
   -3.0955    2.3548    0.0000 C   0  0  0  0  0  0  0  0  0  0  0  0
  1  2  1  0
  2  3  1  0
  3  4  1  0
  4  5  2  0
  5  6  1  0
  6  2  2  0
  6  7  1  0
  7  8  1  0
  8  9  1  0
  9 10  1  0
 10 11  1  0
 11 12  2  0
 12 13  1  0
 13  8  1  0
 13 14  2  0
 12 15  1  0
 15 16  2  0
 16 17  1  0
 17 18  2  0
 18 19  1  0
 19 20  2  0
 20 15  1  0
 20 21  1  0
 21 11  1  0
 21 22  1  0
M  END

> <chembl_id>
CHEMBL1110

> <chembl_pref_name>
ALOSETRON

$$$$

     RDKit          2D

 26 26  0  0  0  0  0  0  0  0999 V2000
   -1.8375   -3.1625    0.0000 S   0  0  0  0  0  0  0  0  0  0  0  0
   -1.2250   -2.8042    0.0000 N   0  0  0  0  0  0  0  0  0  0  0  0
   -1.4875   -3.7750    0.0000 O   0  0  0  0  0  0  0  0  0  0  0  0
   -2.1958   -3.7750    0.0000 O   0  0  0  0  0  0  0  0  0  0  0  0
    0.6792   -3.8917    0.0000 C   0  0  0  0  0  0  0  0  0  0  0  0
    0.6792   -3.1667    0.0000 C   0  0  0  0  0  0  0  0  0  0  0  0
    0.0292   -4.2500    0.0000 C   0  0  0  0  0  0  0  0  0  0  0  0
   -0.5958   -3.1667    0.0000 C   0  0  0  0  0  0  0  0  0  0  0  0
   -2.4542   -2.8125    0.0000 C   0  0  0  0  0  0  0  0  0  0  0  0
    1.2500   -4.2500    0.0000 C   0  0  0  0  0  0  0  0  0  0  0  0
    3.6667   -4.2167    0.0000 N   0  0  0  0  0  0  0  0  0  0  0  0
    0.0292   -2.8000    0.0000 C   0  0  0  0  0  0  0  0  0  0  0  0
   -0.5958   -3.8917    0.0000 C   0  0  0  0  0  0  0  0  0  0  0  0
    1.2500   -5.0542    0.0000 O   0  0  0  0  0  0  0  0  0  0  0  0
    2.4667   -4.2167    0.0000 C   0  0  0  0  0  0  0  0  0  0  0  0
    3.0875   -3.8917    0.0000 C   0  0  0  0  0  0  0  0  0  0  0  0
    1.8917   -3.8917    0.0000 C   0  0  0  0  0  0  0  0  0  0  0  0
    3.6667   -4.9500    0.0000 C   0  0  0  0  0  0  0  0  0  0  0  0
    4.2667   -3.8625    0.0000 C   0  0  0  0  0  0  0  0  0  0  0  0
    4.8417   -4.2167    0.0000 C   0  0  0  0  0  0  0  0  0  0  0  0
    7.2375   -4.2042    0.0000 C   0  0  0  0  0  0  0  0  0  0  0  0
    6.6292   -3.8625    0.0000 C   0  0  0  0  0  0  0  0  0  0  0  0
    5.4667   -3.8625    0.0000 C   0  0  0  0  0  0  0  0  0  0  0  0
    6.0375   -4.2042    0.0000 C   0  0  0  0  0  0  0  0  0  0  0  0
    4.2667   -5.3042    0.0000 C   0  0  0  0  0  0  0  0  0  0  0  0
    7.8292   -3.8625    0.0000 C   0  0  0  0  0  0  0  0  0  0  0  0
  2  1  1  0
  3  1  2  0
  4  1  2  0
  5  7  1  0
  6 12  1  0
  7 13  2  0
  8  2  1  0
  9  1  1  0
 10  5  1  0
 11 16  1  0
 12  8  2  0
 13  8  1  0
 14 10  1  0
 15 17  1  0
 16 15  1  0
 17 10  1  0
 18 11  1  0
 19 11  1  0
 20 19  1  0
 21 22  1  0
 22 24  1  0
 23 20  1  0
 24 23  1  0
 25 18  1  0
 26 21  1  0
  6  5  2  0
M  END

> <chembl_id>
CHEMBL533

> <chembl_pref_name>
IBUTILIDE

$$$$

     RDKit          2D

 22 23  0  0  0  0  0  0  0  0999 V2000
   -2.3447   -3.1374    0.0000 C   0  0  0  0  0  0  0  0  0  0  0  0
   -1.3074   -3.7406    0.0000 N   0  0  0  0  0  0  0  0  0  0  0  0
   -0.0048   -2.9950    0.0000 C   0  0  0  0  0  0  0  0  0  0  0  0
    1.2926   -3.7495    0.0000 C   0  0  0  0  0  0  0  0  0  0  0  0
    2.5951   -3.0039    0.0000 C   0  0  0  0  0  0  0  0  0  0  0  0
    2.5973   -1.5030    0.0000 O   0  0  0  0  0  0  0  0  0  0  0  0
    1.2990   -0.7500    0.0000 C   0  0  0  0  0  0  0  0  0  0  0  0
    1.2990    0.7500    0.0000 C   0  0  0  0  0  0  0  0  0  0  0  0
    0.0000    1.5000    0.0000 C   0  0  0  0  0  0  0  0  0  0  0  0
   -1.2990    0.7500    0.0000 C   0  0  0  0  0  0  0  0  0  0  0  0
   -1.2990   -0.7500    0.0000 C   0  0  0  0  0  0  0  0  0  0  0  0
    0.0000   -1.5000    0.0000 C   0  0  0  0  0  0  0  0  0  0  0  0
   -2.5988    1.5004    0.0000 C   0  0  0  0  0  0  0  0  0  0  0  0
   -2.5996    2.7004    0.0000 F   0  0  0  0  0  0  0  0  0  0  0  0
   -3.6378    0.9001    0.0000 F   0  0  0  0  0  0  0  0  0  0  0  0
   -3.6383    2.0999    0.0000 F   0  0  0  0  0  0  0  0  0  0  0  0
    3.8934   -3.7569    0.0000 C   0  0  0  0  0  0  0  0  0  0  0  0
    5.1961   -3.0132    0.0000 C   0  0  0  0  0  0  0  0  0  0  0  0
    6.4915   -3.7695    0.0000 C   0  0  0  0  0  0  0  0  0  0  0  0
    6.4843   -5.2694    0.0000 C   0  0  0  0  0  0  0  0  0  0  0  0
    5.1817   -6.0132    0.0000 C   0  0  0  0  0  0  0  0  0  0  0  0
    3.8862   -5.2570    0.0000 C   0  0  0  0  0  0  0  0  0  0  0  0
  1  2  1  0
  2  3  1  0
  3  4  1  0
  4  5  1  0
  5  6  1  0
  6  7  1  0
  7  8  2  0
  8  9  1  0
  9 10  2  0
 10 11  1  0
 11 12  2  0
 12  7  1  0
 10 13  1  0
 13 14  1  0
 13 15  1  0
 13 16  1  0
  5 17  1  0
 17 18  2  0
 18 19  1  0
 19 20  2  0
 20 21  1  0
 21 22  2  0
 22 17  1  0
M  END

> <chembl_id>
CHEMBL41

> <chembl_pref_name>
FLUOXETINE

$$$$

     RDKit          2D

 28 31  0  0  0  0  0  0  0  0999 V2000
    0.9375   -1.9792    0.0000 C   0  0  0  0  0  0  0  0  0  0  0  0
    0.9292   -2.6917    0.0000 N   0  0  0  0  0  0  0  0  0  0  0  0
   -0.3208   -2.6750    0.0000 C   0  0  0  0  0  0  0  0  0  0  0  0
    0.2875   -3.0417    0.0000 C   0  0  0  0  0  0  0  0  0  0  0  0
    0.3042   -1.6167    0.0000 N   0  0  0  0  0  0  0  0  0  0  0  0
   -0.3208   -1.9625    0.0000 C   0  0  0  0  0  0  0  0  0  0  0  0
    3.3917   -0.5917    0.0000 C   0  0  0  0  0  0  0  0  0  0  0  0
    1.5542   -1.6417    0.0000 N   0  0  0  0  0  0  0  0  0  0  0  0
    2.7792   -0.9542    0.0000 N   0  0  0  0  0  0  0  0  0  0  0  0
   -0.9500   -3.0167    0.0000 C   0  0  0  0  0  0  0  0  0  0  0  0
    4.0125   -0.9292    0.0000 C   0  0  0  0  0  0  0  0  0  0  0  0
   -0.9250   -1.5917    0.0000 C   0  0  0  0  0  0  0  0  0  0  0  0
   -1.5833   -2.6542    0.0000 C   0  0  0  0  0  0  0  0  0  0  0  0
   -1.5708   -1.9417    0.0000 C   0  0  0  0  0  0  0  0  0  0  0  0
    4.2417   -1.5917    0.0000 O   0  0  0  0  0  0  0  0  0  0  0  0
    1.5417   -0.9500    0.0000 C   0  0  0  0  0  0  0  0  0  0  0  0
    2.1667   -2.0000    0.0000 C   0  0  0  0  0  0  0  0  0  0  0  0
    2.1667   -0.5792    0.0000 C   0  0  0  0  0  0  0  0  0  0  0  0
    2.7792   -1.6375    0.0000 C   0  0  0  0  0  0  0  0  0  0  0  0
    3.4042    0.0875    0.0000 O   0  0  0  0  0  0  0  0  0  0  0  0
    4.5792   -0.5125    0.0000 C   0  0  0  0  0  0  0  0  0  0  0  0
    4.9417   -1.5917    0.0000 C   0  0  0  0  0  0  0  0  0  0  0  0
    5.1542   -0.9292    0.0000 C   0  0  0  0  0  0  0  0  0  0  0  0
    0.2667   -3.7542    0.0000 N   0  0  0  0  0  0  0  0  0  0  0  0
   -2.2000   -2.9917    0.0000 O   0  0  0  0  0  0  0  0  0  0  0  0
   -2.1833   -1.5792    0.0000 O   0  0  0  0  0  0  0  0  0  0  0  0
   -2.7958   -1.9125    0.0000 C   0  0  0  0  0  0  0  0  0  0  0  0
   -2.7958   -2.6542    0.0000 C   0  0  0  0  0  0  0  0  0  0  0  0
  2  1  2  0
  3  6  1  0
  4  2  1  0
  5  1  1  0
  6  5  2  0
  7  9  1  0
  8  1  1  0
  9 19  1  0
 10  3  1  0
 11  7  1  0
 12  6  1  0
 13 14  1  0
 14 12  2  0
 15 11  1  0
 16  8  1  0
 17  8  1  0
 18 16  1  0
 19 17  1  0
 20  7  2  0
 21 11  2  0
 22 15  1  0
 23 21  1  0
 24  4  1  0
 25 13  1  0
 26 14  1  0
 27 26  1  0
 28 25  1  0
  3  4  2  0
  9 18  1  0
 10 13  2  0
 22 23  2  0
M  END

> <chembl_id>
CHEMBL2

> <chembl_pref_name>
PRAZOSIN

$$$$

     RDKit          2D

 29 31  0  0  1  0  0  0  0  0999 V2000
    6.9417   -2.3667    0.0000 C   0  0  0  0  0  0  0  0  0  0  0  0
    6.6792   -2.9542    0.0000 C   0  0  0  0  0  0  0  0  0  0  0  0
    5.9667   -3.1417    0.0000 N   0  0  0  0  0  0  0  0  0  0  0  0
    5.9292   -1.6042    0.0000 S   0  0  0  0  0  0  0  0  0  0  0  0
    6.6042   -1.7042    0.0000 C   0  0  0  0  0  0  0  0  0  0  0  0
    5.4042   -2.6667    0.0000 C   0  0  0  0  0  0  0  0  0  0  0  0
    5.4042   -2.0292    0.0000 C   0  0  0  0  0  0  0  0  0  0  0  0
    7.7167   -2.3667    0.0000 O   0  0  0  0  0  0  0  0  0  0  0  0
    5.9667   -3.9917    0.0000 C   0  0  0  0  0  0  0  0  0  0  0  0
    7.2292   -1.3042    0.0000 C   0  0  0  0  0  0  0  0  0  0  0  0
    8.2917   -2.7167    0.0000 C   0  0  0  0  0  0  0  0  0  0  0  0
    7.1667   -3.4792    0.0000 O   0  0  0  0  0  0  0  0  0  0  0  0
    8.2917   -3.4167    0.0000 O   0  0  0  0  0  0  0  0  0  0  0  0
    7.8292   -1.6167    0.0000 C   0  0  0  0  0  0  0  0  0  0  0  0
    7.2292   -0.5917    0.0000 C   0  0  0  0  0  0  0  0  0  0  0  0
    6.6167   -4.3792    0.0000 C   0  0  0  0  0  0  0  0  0  0  0  0
    6.6167   -5.1292    0.0000 N   0  0  0  0  0  0  0  0  0  0  0  0
    8.4042   -0.5917    0.0000 C   0  0  0  0  0  0  0  0  0  0  0  0
    7.8292   -0.2292    0.0000 C   0  0  0  0  0  0  0  0  0  0  0  0
    8.4042   -1.2792    0.0000 C   0  0  0  0  0  0  0  0  0  0  0  0
    4.7667   -3.0417    0.0000 C   0  0  0  0  0  0  0  0  0  0  0  0
    8.9792   -0.2542    0.0000 O   0  0  0  0  0  0  0  0  0  0  0  0
    4.7667   -1.6417    0.0000 C   0  0  0  0  0  0  0  0  0  0  0  0
    8.9167   -2.3667    0.0000 C   0  0  0  0  0  0  0  0  0  0  0  0
    7.2417   -5.4667    0.0000 C   0  0  0  0  0  0  0  0  0  0  0  0
    6.0417   -5.4292    0.0000 C   0  0  0  0  0  0  0  0  0  0  0  0
    9.6292   -0.5917    0.0000 C   0  0  0  0  0  0  0  0  0  0  0  0
    4.1417   -2.7167    0.0000 C   0  0  0  0  0  0  0  0  0  0  0  0
    4.1417   -1.9792    0.0000 C   0  0  0  0  0  0  0  0  0  0  0  0
  2  1  1  0
  3  2  1  0
  4  5  1  0
  5  1  1  0
  6  3  1  0
  7  4  1  0
  1  8  1  1
  9  3  1  0
  5 10  1  1
 11  8  1  0
 12  2  2  0
 13 11  2  0
 14 10  2  0
 15 10  1  0
 16  9  1  0
 17 16  1  0
 18 19  1  0
 19 15  2  0
 20 14  1  0
 21  6  1  0
 22 18  1  0
 23  7  1  0
 24 11  1  0
 25 17  1  0
 26 17  1  0
 27 22  1  0
 28 21  2  0
 29 23  2  0
  6  7  2  0
 18 20  2  0
 28 29  1  0
M  END

> <chembl_id>
CHEMBL23

> <chembl_pref_name>
DILTIAZEM

$$$$

     RDKit          2D

 27 29  0  0  0  0  0  0  0  0999 V2000
    4.2292   -5.0042    0.0000 N   0  0  0  0  0  0  0  0  0  0  0  0
    3.6292   -5.3792    0.0000 C   0  0  0  0  0  0  0  0  0  0  0  0
    5.4542   -4.2917    0.0000 N   0  0  0  0  0  0  0  0  0  0  0  0
    8.5417   -3.9542    0.0000 C   0  0  0  0  0  0  0  0  0  0  0  0
    3.0000   -5.0542    0.0000 C   0  0  0  0  0  0  0  0  0  0  0  0
    4.8500   -5.3417    0.0000 C   0  0  0  0  0  0  0  0  0  0  0  0
    4.2292   -4.2917    0.0000 C   0  0  0  0  0  0  0  0  0  0  0  0
    8.5292   -3.2875    0.0000 O   0  0  0  0  0  0  0  0  0  0  0  0
    3.6292   -6.0917    0.0000 C   0  0  0  0  0  0  0  0  0  0  0  0
    2.3917   -5.4250    0.0000 C   0  0  0  0  0  0  0  0  0  0  0  0
    3.0000   -4.3292    0.0000 C   0  0  0  0  0  0  0  0  0  0  0  0
    4.8500   -3.9167    0.0000 C   0  0  0  0  0  0  0  0  0  0  0  0
    5.4542   -5.0042    0.0000 C   0  0  0  0  0  0  0  0  0  0  0  0
    1.7667   -4.3292    0.0000 C   0  0  0  0  0  0  0  0  0  0  0  0
    9.1750   -4.3167    0.0000 O   0  0  0  0  0  0  0  0  0  0  0  0
    1.7667   -5.0542    0.0000 C   0  0  0  0  0  0  0  0  0  0  0  0
    2.3917   -4.0000    0.0000 C   0  0  0  0  0  0  0  0  0  0  0  0
    1.1542   -4.0000    0.0000 Cl  0  0  0  0  0  0  0  0  0  0  0  0
    6.0792   -3.9167    0.0000 C   0  0  0  0  0  0  0  0  0  0  0  0
    7.9042   -4.2917    0.0000 C   0  0  0  0  0  0  0  0  0  0  0  0
    7.3042   -3.9167    0.0000 O   0  0  0  0  0  0  0  0  0  0  0  0
    4.2292   -6.4375    0.0000 C   0  0  0  0  0  0  0  0  0  0  0  0
    3.0000   -6.4375    0.0000 C   0  0  0  0  0  0  0  0  0  0  0  0
    6.6917   -4.2917    0.0000 C   0  0  0  0  0  0  0  0  0  0  0  0
    3.0000   -7.1500    0.0000 C   0  0  0  0  0  0  0  0  0  0  0  0
    4.2292   -7.1500    0.0000 C   0  0  0  0  0  0  0  0  0  0  0  0
    3.6292   -7.5250    0.0000 C   0  0  0  0  0  0  0  0  0  0  0  0
  2  1  1  0
  3 12  1  0
  4 20  1  0
  5  2  1  0
  6  1  1  0
  7  1  1  0
  8  4  2  0
  9  2  1  0
 10  5  1  0
 11  5  2  0
 12  7  1  0
 13  6  1  0
 14 17  2  0
 15  4  1  0
 16 10  2  0
 17 11  1  0
 18 14  1  0
 19  3  1  0
 20 21  1  0
 21 24  1  0
 22  9  1  0
 23  9  2  0
 24 19  1  0
 25 23  1  0
 26 22  2  0
 27 26  1  0
 13  3  1  0
 16 14  1  0
 25 27  2  0
M  END

> <chembl_id>
CHEMBL1000

> <chembl_pref_name>
CETIRIZINE

$$$$

     RDKit          2D

 28 31  0  0  0  0  0  0  0  0999 V2000
   -2.3155    0.7475    0.0000 C   0  0  0  0  0  0  0  0  0  0  0  0
   -2.3155   -0.7475    0.0000 C   0  0  0  0  0  0  0  0  0  0  0  0
   -1.0028   -1.5132    0.0000 C   0  0  0  0  0  0  0  0  0  0  0  0
   -1.0028    1.5132    0.0000 C   0  0  0  0  0  0  0  0  0  0  0  0
    0.2917    0.7475    0.0000 C   0  0  0  0  0  0  0  0  0  0  0  0
    0.2917   -0.7475    0.0000 C   0  0  0  0  0  0  0  0  0  0  0  0
    1.7138   -1.2033    0.0000 N   0  0  0  0  0  0  0  0  0  0  0  0
    2.5889    0.0182    0.0000 C   0  0  0  0  0  0  0  0  0  0  0  0
    1.7138    1.2033    0.0000 N   0  0  0  0  0  0  0  0  0  0  0  0
    3.7889    0.0269    0.0000 O   0  0  0  0  0  0  0  0  0  0  0  0
    3.6621    2.8384    0.0000 C   0  0  0  0  0  0  0  0  0  0  0  0
    4.2218    4.2301    0.0000 C   0  0  0  0  0  0  0  0  0  0  0  0
    3.2964    5.4106    0.0000 N   0  0  0  0  0  0  0  0  0  0  0  0
    1.8114    5.1995    0.0000 C   0  0  0  0  0  0  0  0  0  0  0  0
    1.2517    3.8078    0.0000 C   0  0  0  0  0  0  0  0  0  0  0  0
    3.8536    6.8042    0.0000 C   0  0  0  0  0  0  0  0  0  0  0  0
    2.9260    7.9841    0.0000 C   0  0  0  0  0  0  0  0  0  0  0  0
    3.4832    9.3777    0.0000 C   0  0  0  0  0  0  0  0  0  0  0  0
    2.5556   10.5575    0.0000 C   0  0  0  0  0  0  0  0  0  0  0  0
    1.3679   10.3866    0.0000 O   0  0  0  0  0  0  0  0  0  0  0  0
    3.1128   11.9511    0.0000 C   0  0  0  0  0  0  0  0  0  0  0  0
    2.1874   13.1317    0.0000 C   0  0  0  0  0  0  0  0  0  0  0  0
    2.7471   14.5234    0.0000 C   0  0  0  0  0  0  0  0  0  0  0  0
    4.2322   14.7346    0.0000 C   0  0  0  0  0  0  0  0  0  0  0  0
    5.1576   13.5540    0.0000 C   0  0  0  0  0  0  0  0  0  0  0  0
    4.5979   12.1623    0.0000 C   0  0  0  0  0  0  0  0  0  0  0  0
    4.6799   15.8479    0.0000 F   0  0  0  0  0  0  0  0  0  0  0  0
    2.1749    2.6315    0.0000 C   0  0  0  0  0  0  0  0  0  0  0  0
  1  2  2  0
  5  4  2  0
 28 15  2  0
 11 12  1  0
 12 13  1  0
 13 14  1  0
 14 15  1  0
  6  7  1  0
 13 16  1  0
  7  8  1  0
 16 17  1  0
  8  9  1  0
 17 18  1  0
  9  5  1  0
 18 19  1  0
  4  1  1  0
 19 20  2  0
  8 10  2  0
 19 21  1  0
  5  6  1  0
 21 22  2  0
  9 28  1  0
 22 23  1  0
 28 11  1  0
 23 24  2  0
 24 25  1  0
  2  3  1  0
 25 26  2  0
 26 21  1  0
  3  6  2  0
 24 27  1  0
M  END

> <chembl_id>
CHEMBL1108

> <chembl_pref_name>
DROPERIDOL

$$$$

     RDKit          2D

 26 28  0  0  0  0  0  0  0  0999 V2000
    0.0292    1.4708    0.0000 C   0  0  0  0  0  0  0  0  0  0  0  0
    0.5417    1.7708    0.0000 N   0  0  0  0  0  0  0  0  0  0  0  0
   -0.4958    1.7708    0.0000 C   0  0  0  0  0  0  0  0  0  0  0  0
    0.5417    0.5708    0.0000 C   0  0  0  0  0  0  0  0  0  0  0  0
   -0.4958    2.3625    0.0000 C   0  0  0  0  0  0  0  0  0  0  0  0
    1.0667    1.4708    0.0000 C   0  0  0  0  0  0  0  0  0  0  0  0
    1.5917    1.7708    0.0000 C   0  0  0  0  0  0  0  0  0  0  0  0
    0.0292    0.8708    0.0000 C   0  0  0  0  0  0  0  0  0  0  0  0
    1.0667    0.8708    0.0000 C   0  0  0  0  0  0  0  0  0  0  0  0
    0.5417   -0.0167    0.0000 C   0  0  0  0  0  0  0  0  0  0  0  0
    1.0667   -0.9167    0.0000 N   0  0  0  0  0  0  0  0  0  0  0  0
    1.0667   -0.3167    0.0000 C   0  0  0  0  0  0  0  0  0  0  0  0
   -1.0958    2.3625    0.0000 F   0  0  0  0  0  0  0  0  0  0  0  0
   -0.4958    2.9708    0.0000 F   0  0  0  0  0  0  0  0  0  0  0  0
    0.1042    2.3625    0.0000 F   0  0  0  0  0  0  0  0  0  0  0  0
    1.8917    1.2458    0.0000 F   0  0  0  0  0  0  0  0  0  0  0  0
    1.3000    2.2958    0.0000 F   0  0  0  0  0  0  0  0  0  0  0  0
    2.1250    2.0708    0.0000 F   0  0  0  0  0  0  0  0  0  0  0  0
   -1.0125    1.4583    0.0000 C   0  0  0  0  0  0  0  0  0  0  0  0
    0.0167   -0.3250    0.0000 O   0  0  0  0  0  0  0  0  0  0  0  0
   -0.4958    0.5708    0.0000 C   0  0  0  0  0  0  0  0  0  0  0  0
    1.5792   -1.2167    0.0000 C   0  0  0  0  0  0  0  0  0  0  0  0
   -1.0125    0.8708    0.0000 C   0  0  0  0  0  0  0  0  0  0  0  0
    1.5792   -0.0167    0.0000 C   0  0  0  0  0  0  0  0  0  0  0  0
    2.1042   -0.9167    0.0000 C   0  0  0  0  0  0  0  0  0  0  0  0
    2.1042   -0.3250    0.0000 C   0  0  0  0  0  0  0  0  0  0  0  0
  2  1  1  0
  3  1  1  0
  4  8  1  0
  5  3  1  0
  6  2  2  0
  7  6  1  0
  8  1  2  0
  9  4  2  0
 10  4  1  0
 11 12  1  0
 12 10  1  0
 13  5  1  0
 14  5  1  0
 15  5  1  0
 16  7  1  0
 17  7  1  0
 18  7  1  0
 19  3  2  0
 20 10  1  0
 21  8  1  0
 22 11  1  0
 23 21  2  0
 24 12  1  0
 25 26  1  0
 26 24  1  0
 19 23  1  0
  6  9  1  0
 22 25  1  0
M  END

> <chembl_id>
CHEMBL416956

> <chembl_pref_name>
MEFLOQUINE

$$$$

     RDKit          2D

 23 26  0  0  0  0  0  0  0  0999 V2000
    1.0803   -8.6470    0.0000 C   0  0  0  0  0  0  0  0  0  0  0  0
    1.5695   -9.3106    0.0000 N   0  0  0  0  0  0  0  0  0  0  0  0
    1.0851   -9.9791    0.0000 N   0  0  0  0  0  0  0  0  0  0  0  0
    0.2955   -8.9086    0.0000 C   0  0  0  0  0  0  0  0  0  0  0  0
    1.0996   -7.8235    0.0000 C   0  0  0  0  0  0  0  0  0  0  0  0
    2.3737   -4.6892    0.0000 N   0  0  0  0  0  0  0  0  0  0  0  0
    0.3003   -9.7321    0.0000 C   0  0  0  0  0  0  0  0  0  0  0  0
    1.8215   -7.4263    0.0000 N   0  0  0  0  0  0  0  0  0  0  0  0
    2.7370   -5.4013    0.0000 C   0  0  0  0  0  0  0  0  0  0  0  0
    2.1896   -5.3530    0.0000 C   0  0  0  0  0  0  0  0  0  0  0  0
    1.8262   -6.6028    0.0000 C   0  0  0  0  0  0  0  0  0  0  0  0
    1.9765   -5.9730    0.0000 C   0  0  0  0  0  0  0  0  0  0  0  0
    1.4582   -5.8954    0.0000 C   0  0  0  0  0  0  0  0  0  0  0  0
    0.3924   -7.4021    0.0000 O   0  0  0  0  0  0  0  0  0  0  0  0
    1.3467  -10.7639    0.0000 C   0  0  0  0  0  0  0  0  0  0  0  0
   -0.4166   -8.4920    0.0000 C   0  0  0  0  0  0  0  0  0  0  0  0
    2.3592   -3.8657    0.0000 C   0  0  0  0  0  0  0  0  0  0  0  0
   -0.4166  -10.1439    0.0000 C   0  0  0  0  0  0  0  0  0  0  0  0
    2.7952   -6.0796    0.0000 C   0  0  0  0  0  0  0  0  0  0  0  0
    3.3474   -6.1619    0.0000 C   0  0  0  0  0  0  0  0  0  0  0  0
    2.8048   -6.7772    0.0000 C   0  0  0  0  0  0  0  0  0  0  0  0
   -1.1287   -8.9086    0.0000 C   0  0  0  0  0  0  0  0  0  0  0  0
   -1.1287   -9.7273    0.0000 C   0  0  0  0  0  0  0  0  0  0  0  0
  2  1  2  0
  3  2  1  0
  4  1  1  0
  5  1  1  0
 10  6  1  0
  7  4  2  0
  8  5  1  0
 10 13  1  0
 11  8  1  0
 12 11  1  0
 13 11  1  0
 14  5  2  0
 15  3  1  0
 16  4  1  0
 17  6  1  0
 18  7  1  0
 10 19  1  0
  9 20  1  0
 21 19  1  0
 22 16  2  0
 23 18  2  0
  3  7  1  0
 23 22  1  0
  9  6  1  0
 21 20  1  0
  9 12  1  0
M  END

> <chembl_id>
CHEMBL289469

> <chembl_pref_name>
GRANISETRON

$$$$

     RDKit          2D

 24 27  0  0  0  0  0  0  0  0999 V2000
    2.6024   -2.6977    0.0000 O   0  0  0  0  0  0  0  0  0  0  0  0
    2.6003   -1.4977    0.0000 C   0  0  0  0  0  0  0  0  0  0  0  0
    3.6387   -0.8963    0.0000 O   0  0  0  0  0  0  0  0  0  0  0  0
    1.2990   -0.7500    0.0000 C   0  0  0  0  0  0  0  0  0  0  0  0
    1.2990    0.7500    0.0000 C   0  0  0  0  0  0  0  0  0  0  0  0
    0.0000    1.5000    0.0000 N   0  0  0  0  0  0  0  0  0  0  0  0
    0.0000    3.0008    0.0000 C   0  0  0  0  0  0  0  0  0  0  0  0
    0.7481    4.2096    0.0000 C   0  0  0  0  0  0  0  0  0  0  0  0
   -0.7519    4.2072    0.0000 C   0  0  0  0  0  0  0  0  0  0  0  0
   -1.2990    0.7500    0.0000 C   0  0  0  0  0  0  0  0  0  0  0  0
   -2.5981    1.5000    0.0000 C   0  0  0  0  0  0  0  0  0  0  0  0
   -3.8971    0.7500    0.0000 C   0  0  0  0  0  0  0  0  0  0  0  0
   -5.1968    1.5003    0.0000 N   0  0  0  0  0  0  0  0  0  0  0  0
   -5.1993    3.0004    0.0000 C   0  0  0  0  0  0  0  0  0  0  0  0
   -6.4995    3.7483    0.0000 C   0  0  0  0  0  0  0  0  0  0  0  0
   -7.7974    2.9963    0.0000 N   0  0  0  0  0  0  0  0  0  0  0  0
   -7.7950    1.4963    0.0000 C   0  0  0  0  0  0  0  0  0  0  0  0
   -6.4948    0.7483    0.0000 C   0  0  0  0  0  0  0  0  0  0  0  0
   -3.8971   -0.7500    0.0000 C   0  0  0  0  0  0  0  0  0  0  0  0
   -4.9363   -1.3500    0.0000 F   0  0  0  0  0  0  0  0  0  0  0  0
   -2.5981   -1.5000    0.0000 C   0  0  0  0  0  0  0  0  0  0  0  0
   -1.2990   -0.7500    0.0000 C   0  0  0  0  0  0  0  0  0  0  0  0
    0.0000   -1.5000    0.0000 C   0  0  0  0  0  0  0  0  0  0  0  0
    0.0000   -2.7000    0.0000 O   0  0  0  0  0  0  0  0  0  0  0  0
  1  2  1  0
  2  3  2  0
  2  4  1  0
  4  5  2  0
  5  6  1  0
  6  7  1  0
  7  8  1  0
  8  9  1  0
  9  7  1  0
  6 10  1  0
 10 11  2  0
 11 12  1  0
 12 13  1  0
 13 14  1  0
 14 15  1  0
 15 16  1  0
 16 17  1  0
 17 18  1  0
 18 13  1  0
 12 19  2  0
 19 20  1  0
 19 21  1  0
 21 22  2  0
 22 10  1  0
 22 23  1  0
 23  4  1  0
 23 24  2  0
M  END

> <chembl_id>
CHEMBL8

> <chembl_pref_name>
CIPROFLOXACIN

$$$$

     RDKit          2D

 30 33  0  0  0  0  0  0  0  0999 V2000
   -2.2020   -0.7795    0.0000 O   0  0  0  0  0  0  0  0  0  0  0  0
   -0.7731   -1.6045    0.0000 O   0  0  0  0  0  0  0  0  0  0  0  0
    2.7993   -0.3670    0.0000 O   0  0  0  0  0  0  0  0  0  0  0  0
    4.2282    0.4580    0.0000 O   0  0  0  0  0  0  0  0  0  0  0  0
   -3.4594    1.6774    0.0000 N   0  0  0  0  0  0  0  0  0  0  0  0
    0.6559   -0.7795    0.0000 N   0  0  0  0  0  0  0  0  0  0  0  0
   -2.9165    0.4580    0.0000 C   0  0  0  0  0  0  0  0  0  0  0  0
   -2.3034    1.0100    0.0000 C   0  0  0  0  0  0  0  0  0  0  0  0
   -3.6310    0.8705    0.0000 C   0  0  0  0  0  0  0  0  0  0  0  0
   -2.6390    1.7637    0.0000 C   0  0  0  0  0  0  0  0  0  0  0  0
   -2.9165   -0.3670    0.0000 C   0  0  0  0  0  0  0  0  0  0  0  0
   -1.4829    0.9238    0.0000 C   0  0  0  0  0  0  0  0  0  0  0  0
   -4.3454    0.4580    0.0000 C   0  0  0  0  0  0  0  0  0  0  0  0
   -2.1540    2.4311    0.0000 C   0  0  0  0  0  0  0  0  0  0  0  0
   -3.6310   -0.7795    0.0000 C   0  0  0  0  0  0  0  0  0  0  0  0
   -4.3454   -0.3670    0.0000 C   0  0  0  0  0  0  0  0  0  0  0  0
   -0.9980    1.5912    0.0000 C   0  0  0  0  0  0  0  0  0  0  0  0
   -1.3336    2.3449    0.0000 C   0  0  0  0  0  0  0  0  0  0  0  0
   -1.4876   -0.3670    0.0000 C   0  0  0  0  0  0  0  0  0  0  0  0
   -0.7731   -0.7795    0.0000 C   0  0  0  0  0  0  0  0  0  0  0  0
    3.5137   -0.7795    0.0000 C   0  0  0  0  0  0  0  0  0  0  0  0
   -0.0586   -0.3670    0.0000 C   0  0  0  0  0  0  0  0  0  0  0  0
    4.2282   -0.3670    0.0000 C   0  0  0  0  0  0  0  0  0  0  0  0
    3.5137   -1.6045    0.0000 C   0  0  0  0  0  0  0  0  0  0  0  0
    4.9427   -0.7795    0.0000 C   0  0  0  0  0  0  0  0  0  0  0  0
    4.2282   -2.0170    0.0000 C   0  0  0  0  0  0  0  0  0  0  0  0
    4.9427   -1.6045    0.0000 C   0  0  0  0  0  0  0  0  0  0  0  0
    2.0848   -0.7795    0.0000 C   0  0  0  0  0  0  0  0  0  0  0  0
    1.3703   -0.3670    0.0000 C   0  0  0  0  0  0  0  0  0  0  0  0
    4.9427    0.8705    0.0000 C   0  0  0  0  0  0  0  0  0  0  0  0
  1 11  1  0
  1 19  1  0
  2 20  1  0
  3 21  1  0
  3 28  1  0
  4 23  1  0
  4 30  1  0
  5  9  1  0
  5 10  1  0
  6 22  1  0
  6 29  1  0
  7  8  1  0
  7  9  2  0
  7 11  1  0
  8 10  2  0
  8 12  1  0
  9 13  1  0
 10 14  1  0
 11 15  2  0
 12 17  2  0
 13 16  2  0
 14 18  2  0
 15 16  1  0
 17 18  1  0
 19 20  1  0
 20 22  1  0
 21 23  2  0
 21 24  1  0
 23 25  1  0
 24 26  2  0
 25 27  2  0
 26 27  1  0
 28 29  1  0
M  END

> <chembl_id>
CHEMBL723

> <chembl_pref_name>
CARVEDILOL

$$$$

     RDKit          2D

 26 29  0  0  0  0  0  0  0  0999 V2000
   -0.8793    0.0317    0.0000 C   0  0  0  0  0  0  0  0  0  0  0  0
   -0.8793    0.8567    0.0000 C   0  0  0  0  0  0  0  0  0  0  0  0
   -0.1649    1.2692    0.0000 C   0  0  0  0  0  0  0  0  0  0  0  0
    0.5496    0.8567    0.0000 C   0  0  0  0  0  0  0  0  0  0  0  0
    1.2641    1.2692    0.0000 C   0  0  0  0  0  0  0  0  0  0  0  0
    1.9785    0.8567    0.0000 C   0  0  0  0  0  0  0  0  0  0  0  0
    1.9785    0.0317    0.0000 C   0  0  0  0  0  0  0  0  0  0  0  0
   -0.1649   -0.3808    0.0000 C   0  0  0  0  0  0  0  0  0  0  0  0
    0.5496    0.0317    0.0000 C   0  0  0  0  0  0  0  0  0  0  0  0
    1.2641   -0.3808    0.0000 N   0  0  0  0  0  0  0  0  0  0  0  0
    1.2641   -1.2058    0.0000 C   0  0  0  0  0  0  0  0  0  0  0  0
    0.5496   -1.6183    0.0000 C   0  0  0  0  0  0  0  0  0  0  0  0
   -0.1649   -1.2058    0.0000 O   0  0  0  0  0  0  0  0  0  0  0  0
   -1.5938   -0.3808    0.0000 N   0  0  0  0  0  0  0  0  0  0  0  0
   -1.5938   -1.2058    0.0000 C   0  0  0  0  0  0  0  0  0  0  0  0
   -2.3083   -1.6183    0.0000 C   0  0  0  0  0  0  0  0  0  0  0  0
   -3.0228   -1.2058    0.0000 N   0  0  0  0  0  0  0  0  0  0  0  0
   -3.0228   -0.3808    0.0000 C   0  0  0  0  0  0  0  0  0  0  0  0
   -2.3083    0.0317    0.0000 C   0  0  0  0  0  0  0  0  0  0  0  0
   -3.7372   -1.6183    0.0000 C   0  0  0  0  0  0  0  0  0  0  0  0
    1.9785   -1.6183    0.0000 C   0  0  0  0  0  0  0  0  0  0  0  0
   -1.5938    1.2692    0.0000 F   0  0  0  0  0  0  0  0  0  0  0  0
    1.2641    2.0942    0.0000 O   0  0  0  0  0  0  0  0  0  0  0  0
    2.6930    1.2692    0.0000 C   0  0  0  0  0  0  0  0  0  0  0  0
    2.6930    2.0942    0.0000 O   0  0  0  0  0  0  0  0  0  0  0  0
    3.4075    0.8567    0.0000 O   0  0  0  0  0  0  0  0  0  0  0  0
  1  2  1  0
  2  3  2  0
  3  4  1  0
  4  5  1  0
  5  6  1  0
  6  7  2  0
  1  8  2  0
  4  9  2  0
  8  9  1  0
  7 10  1  0
  9 10  1  0
 10 11  1  0
 11 12  1  0
  8 13  1  0
 12 13  1  0
  1 14  1  0
 14 15  1  0
 15 16  1  0
 16 17  1  0
 17 18  1  0
 14 19  1  0
 18 19  1  0
 17 20  1  0
 11 21  1  0
  2 22  1  0
  5 23  2  0
  6 24  1  0
 24 25  1  0
 24 26  2  0
M  END

> <chembl_id>
CHEMBL4

> <chembl_pref_name>
OFLOXACIN

$$$$

     RDKit          2D

 27 30  0  0  0  0  0  0  0  0999 V2000
    1.5613    1.2904    0.0000 F   0  0  0  0  0  0  0  0  0  0  0  0
    0.1323   -1.1846    0.0000 O   0  0  0  0  0  0  0  0  0  0  0  0
   -1.2966    2.1154    0.0000 O   0  0  0  0  0  0  0  0  0  0  0  0
   -3.4400    0.8779    0.0000 O   0  0  0  0  0  0  0  0  0  0  0  0
   -2.7256    2.1154    0.0000 O   0  0  0  0  0  0  0  0  0  0  0  0
   -1.2966   -0.3596    0.0000 N   0  0  0  0  0  0  0  0  0  0  0  0
    1.5613   -0.3596    0.0000 N   0  0  0  0  0  0  0  0  0  0  0  0
    2.9902   -1.1846    0.0000 N   0  0  0  0  0  0  0  0  0  0  0  0
   -0.5822    0.0529    0.0000 C   0  0  0  0  0  0  0  0  0  0  0  0
   -0.5822    0.8779    0.0000 C   0  0  0  0  0  0  0  0  0  0  0  0
    0.1323   -0.3596    0.0000 C   0  0  0  0  0  0  0  0  0  0  0  0
    0.8468    0.0529    0.0000 C   0  0  0  0  0  0  0  0  0  0  0  0
   -1.2966    1.2904    0.0000 C   0  0  0  0  0  0  0  0  0  0  0  0
   -1.2966   -1.1846    0.0000 C   0  0  0  0  0  0  0  0  0  0  0  0
   -2.0111    0.8779    0.0000 C   0  0  0  0  0  0  0  0  0  0  0  0
    0.8468    0.8779    0.0000 C   0  0  0  0  0  0  0  0  0  0  0  0
    0.1323    1.2904    0.0000 C   0  0  0  0  0  0  0  0  0  0  0  0
   -2.0111    0.0529    0.0000 C   0  0  0  0  0  0  0  0  0  0  0  0
   -0.8841   -1.8990    0.0000 C   0  0  0  0  0  0  0  0  0  0  0  0
   -1.7091   -1.8990    0.0000 C   0  0  0  0  0  0  0  0  0  0  0  0
   -2.7256    1.2904    0.0000 C   0  0  0  0  0  0  0  0  0  0  0  0
    2.2757    0.0529    0.0000 C   0  0  0  0  0  0  0  0  0  0  0  0
    1.5613   -1.1846    0.0000 C   0  0  0  0  0  0  0  0  0  0  0  0
    2.9902   -0.3596    0.0000 C   0  0  0  0  0  0  0  0  0  0  0  0
    2.2757   -1.5971    0.0000 C   0  0  0  0  0  0  0  0  0  0  0  0
    0.8468   -1.5971    0.0000 C   0  0  0  0  0  0  0  0  0  0  0  0
    3.7047    0.0529    0.0000 C   0  0  0  0  0  0  0  0  0  0  0  0
  1 16  1  0
  2 11  1  0
  2 26  1  0
  3 13  2  0
  4 21  2  0
  5 21  1  0
  6  9  1  0
  6 14  1  0
  6 18  1  0
  7 12  1  0
  7 22  1  0
  7 23  1  0
  8 24  1  0
  8 25  1  0
  9 10  1  0
  9 11  2  0
 10 13  1  0
 10 17  2  0
 11 12  1  0
 12 16  2  0
 13 15  1  0
 14 19  1  0
 14 20  1  0
 15 18  2  0
 15 21  1  0
 16 17  1  0
 19 20  1  0
 22 24  1  0
 23 25  1  0
 24 27  1  0
M  END

> <chembl_id>
CHEMBL31

> <chembl_pref_name>
GATIFLOXACIN

$$$$

     RDKit          2D

 24 26  0  0  0  0  0  0  0  0999 V2000
    1.7138   -1.2033    0.0000 C   0  0  0  0  0  0  0  0  0  0  0  0
    0.2917   -0.7475    0.0000 C   0  0  0  0  0  0  0  0  0  0  0  0
    2.5889    0.0182    0.0000 O   0  0  0  0  0  0  0  0  0  0  0  0
    0.2917    0.7475    0.0000 C   0  0  0  0  0  0  0  0  0  0  0  0
   -4.6635    2.0821    0.0000 N   0  0  0  0  0  0  0  0  0  0  0  0
    3.1754   -1.4819    0.0000 C   0  0  0  0  0  0  0  0  0  0  0  0
   -3.6202    1.4892    0.0000 C   0  0  0  0  0  0  0  0  0  0  0  0
   -1.0028   -1.5132    0.0000 C   0  0  0  0  0  0  0  0  0  0  0  0
    1.7138    1.2033    0.0000 C   0  0  0  0  0  0  0  0  0  0  0  0
   -1.0028    1.5132    0.0000 C   0  0  0  0  0  0  0  0  0  0  0  0
   -2.3155    0.7475    0.0000 C   0  0  0  0  0  0  0  0  0  0  0  0
    3.6689   -2.8984    0.0000 C   0  0  0  0  0  0  0  0  0  0  0  0
    4.1554   -0.3463    0.0000 C   0  0  0  0  0  0  0  0  0  0  0  0
   -2.3155   -0.7475    0.0000 C   0  0  0  0  0  0  0  0  0  0  0  0
    6.1224   -2.0437    0.0000 C   0  0  0  0  0  0  0  0  0  0  0  0
    0.7068   -2.2982    0.0000 C   0  0  0  0  0  0  0  0  0  0  0  0
   -3.2314   -2.8114    0.0000 N   0  0  0  0  0  0  0  0  0  0  0  0
    5.6289   -0.6272    0.0000 C   0  0  0  0  0  0  0  0  0  0  0  0
    5.1424   -3.1793    0.0000 C   0  0  0  0  0  0  0  0  0  0  0  0
    7.3011   -2.2684    0.0000 F   0  0  0  0  0  0  0  0  0  0  0  0
   -0.7630   -1.9946    0.0000 C   0  0  0  0  0  0  0  0  0  0  0  0
   -1.7616   -3.1150    0.0000 C   0  0  0  0  0  0  0  0  0  0  0  0
   -4.0298   -3.7073    0.0000 C   0  0  0  0  0  0  0  0  0  0  0  0
   -3.6083   -1.6722    0.0000 C   0  0  0  0  0  0  0  0  0  0  0  0
  2  1  1  0
  3  1  1  0
  4  2  1  0
  5  7  3  0
  6  1  1  0
  7 11  1  0
  8  2  2  0
  9  3  1  0
 10  4  2  0
 11 14  2  0
 12  6  2  0
 13  6  1  0
 14  8  1  0
 15 18  1  0
 16  1  1  0
 17 22  1  0
 18 13  2  0
 19 12  1  0
 20 15  1  0
 21 16  1  0
 22 21  1  0
 23 17  1  0
 24 17  1  0
  4  9  1  0
 19 15  2  0
 10 11  1  0
M  END

> <chembl_id>
CHEMBL549

> <chembl_pref_name>
CITALOPRAM

$$$$

     RDKit          2D

 36 39  0  0  0  0  0  0  0  0999 V2000
   19.5250   -8.4542    0.0000 C   0  0  0  0  0  0  0  0  0  0  0  0
   18.6167   -8.9875    0.0000 N   0  0  0  0  0  0  0  0  0  0  0  0
   17.7292   -8.4542    0.0000 C   0  0  0  0  0  0  0  0  0  0  0  0
   15.9125   -8.4250    0.0000 N   0  0  0  0  0  0  0  0  0  0  0  0
   14.1042   -7.3667    0.0000 N   0  0  0  0  0  0  0  0  0  0  0  0
   10.5125   -7.3667    0.0000 C   0  0  0  0  0  0  0  0  0  0  0  0
   10.5125   -8.4250    0.0000 C   0  0  0  0  0  0  0  0  0  0  0  0
    9.6000   -6.8667    0.0000 C   0  0  0  0  0  0  0  0  0  0  0  0
   16.8250   -8.9542    0.0000 C   0  0  0  0  0  0  0  0  0  0  0  0
   19.5250   -7.4292    0.0000 C   0  0  0  0  0  0  0  0  0  0  0  0
   20.4167   -8.9875    0.0000 C   0  0  0  0  0  0  0  0  0  0  0  0
   17.7292   -7.4125    0.0000 O   0  0  0  0  0  0  0  0  0  0  0  0
    9.6000   -5.8417    0.0000 C   0  0  0  0  0  0  0  0  0  0  0  0
    9.6000   -8.9292    0.0000 C   0  0  0  0  0  0  0  0  0  0  0  0
    8.7042   -7.3667    0.0000 C   0  0  0  0  0  0  0  0  0  0  0  0
   11.3917   -8.9292    0.0000 C   0  0  0  0  0  0  0  0  0  0  0  0
   15.9125   -7.3667    0.0000 C   0  0  0  0  0  0  0  0  0  0  0  0
   15.0042   -8.9292    0.0000 C   0  0  0  0  0  0  0  0  0  0  0  0
   14.1042   -8.4250    0.0000 C   0  0  0  0  0  0  0  0  0  0  0  0
   15.0042   -6.8667    0.0000 C   0  0  0  0  0  0  0  0  0  0  0  0
    7.7917   -5.8417    0.0000 C   0  0  0  0  0  0  0  0  0  0  0  0
   10.5125  -10.4917    0.0000 C   0  0  0  0  0  0  0  0  0  0  0  0
    7.7917   -6.8667    0.0000 C   0  0  0  0  0  0  0  0  0  0  0  0
    9.6000   -9.9542    0.0000 C   0  0  0  0  0  0  0  0  0  0  0  0
    8.7042   -5.3042    0.0000 C   0  0  0  0  0  0  0  0  0  0  0  0
   11.3917   -9.9542    0.0000 C   0  0  0  0  0  0  0  0  0  0  0  0
   10.5125  -11.5292    0.0000 F   0  0  0  0  0  0  0  0  0  0  0  0
    6.8875   -5.3042    0.0000 F   0  0  0  0  0  0  0  0  0  0  0  0
   13.2000   -6.8667    0.0000 C   0  0  0  0  0  0  0  0  0  0  0  0
   12.3042   -7.3667    0.0000 C   0  0  0  0  0  0  0  0  0  0  0  0
   11.3917   -6.8667    0.0000 C   0  0  0  0  0  0  0  0  0  0  0  0
   21.3292   -7.4292    0.0000 C   0  0  0  0  0  0  0  0  0  0  0  0
   21.3292   -8.4542    0.0000 C   0  0  0  0  0  0  0  0  0  0  0  0
   20.4167   -6.9250    0.0000 C   0  0  0  0  0  0  0  0  0  0  0  0
   20.4167  -10.0125    0.0000 C   0  0  0  0  0  0  0  0  0  0  0  0
   18.6167   -6.9250    0.0000 C   0  0  0  0  0  0  0  0  0  0  0  0
  2  1  1  0
  3  2  1  0
  4  9  1  0
  5 19  1  0
  6 31  1  0
  7  6  1  0
  8  6  1  0
  9  3  1  0
 10  1  2  0
 11  1  1  0
 12  3  2  0
 13  8  1  0
 14  7  1  0
 15  8  2  0
 16  7  2  0
 17  4  1  0
 18  4  1  0
 19 18  1  0
 20 17  1  0
 21 23  2  0
 22 26  2  0
 23 15  1  0
 24 14  2  0
 25 13  2  0
 26 16  1  0
 27 22  1  0
 28 21  1  0
 29  5  1  0
 30 29  1  0
 31 30  1  0
 32 33  1  0
 33 11  2  0
 34 10  1  0
 35 11  1  0
 36 10  1  0
 34 32  2  0
 20  5  1  0
 25 21  1  0
 24 22  1  0
M  END

> <chembl_id>
CHEMBL92870

> <chembl_pref_name>
LIDOFLAZINE

$$$$

     RDKit          2D

 19 22  0  0  0  0  0  0  0  0999 V2000
    3.0542   -0.6500    0.0000 N   0  0  0  0  0  0  0  0  0  0  0  0
    2.9417    0.6750    0.0000 N   0  0  0  0  0  0  0  0  0  0  0  0
    3.4667    0.0583    0.0000 C   0  0  0  0  0  0  0  0  0  0  0  0
    2.2542   -0.4667    0.0000 C   0  0  0  0  0  0  0  0  0  0  0  0
    3.4125   -1.3917    0.0000 C   0  0  0  0  0  0  0  0  0  0  0  0
    1.6125   -0.9792    0.0000 C   0  0  0  0  0  0  0  0  0  0  0  0
    2.1792    0.3500    0.0000 C   0  0  0  0  0  0  0  0  0  0  0  0
    3.0542   -2.1292    0.0000 C   0  0  0  0  0  0  0  0  0  0  0  0
    1.6125   -1.8042    0.0000 C   0  0  0  0  0  0  0  0  0  0  0  0
    2.2542   -2.3167    0.0000 C   0  0  0  0  0  0  0  0  0  0  0  0
    4.3000    0.1375    0.0000 N   0  0  0  0  0  0  0  0  0  0  0  0
    4.2375   -1.3292    0.0000 C   0  0  0  0  0  0  0  0  0  0  0  0
    0.9000   -0.5667    0.0000 C   0  0  0  0  0  0  0  0  0  0  0  0
    0.9000   -2.2167    0.0000 C   0  0  0  0  0  0  0  0  0  0  0  0
    3.5167   -2.8167    0.0000 C   0  0  0  0  0  0  0  0  0  0  0  0
    0.1792   -0.9792    0.0000 C   0  0  0  0  0  0  0  0  0  0  0  0
    4.7000   -2.0167    0.0000 C   0  0  0  0  0  0  0  0  0  0  0  0
    4.3417   -2.7625    0.0000 C   0  0  0  0  0  0  0  0  0  0  0  0
    0.1792   -1.8042    0.0000 C   0  0  0  0  0  0  0  0  0  0  0  0
  2  3  2  0
  3  1  1  0
  4  1  1  0
  5  1  1  0
  6  4  1  0
  7  4  1  0
  8  5  1  0
  9  6  1  0
 10  8  1  0
 11  3  1  0
 12  5  2  0
 13  6  2  0
 14  9  2  0
 15  8  2  0
 16 13  1  0
 17 12  1  0
 18 17  2  0
 19 16  2  0
  2  7  1  0
 10  9  1  0
 15 18  1  0
 14 19  1  0
M  END

> <chembl_id>
CHEMBL1106

> <chembl_pref_name>
EPINASTINE

$$$$

     RDKit          2D

 28 30  0  0  0  0  0  0  0  0999 V2000
    2.5928   -4.2039    0.0000 C   0  0  0  0  0  0  0  0  0  0  0  0
    2.5951   -3.0039    0.0000 S   0  0  0  0  0  0  0  0  0  0  0  0
    3.6331   -3.6060    0.0000 O   0  0  0  0  0  0  0  0  0  0  0  0
    1.5548   -3.6021    0.0000 O   0  0  0  0  0  0  0  0  0  0  0  0
    2.5973   -1.5031    0.0000 N   0  0  0  0  0  0  0  0  0  0  0  0
    1.2990   -0.7500    0.0000 C   0  0  0  0  0  0  0  0  0  0  0  0
    1.2990    0.7500    0.0000 C   0  0  0  0  0  0  0  0  0  0  0  0
    0.0000    1.5000    0.0000 C   0  0  0  0  0  0  0  0  0  0  0  0
   -1.2990    0.7500    0.0000 C   0  0  0  0  0  0  0  0  0  0  0  0
   -1.2990   -0.7500    0.0000 C   0  0  0  0  0  0  0  0  0  0  0  0
    0.0000   -1.5000    0.0000 C   0  0  0  0  0  0  0  0  0  0  0  0
   -2.6003    1.4977    0.0000 C   0  0  0  0  0  0  0  0  0  0  0  0
   -2.6024    2.6977    0.0000 O   0  0  0  0  0  0  0  0  0  0  0  0
   -6.4920   -0.7636    0.0000 N   0  0  0  0  0  0  0  0  0  0  0  0
   -6.4972    0.7364    0.0000 C   0  0  0  0  0  0  0  0  0  0  0  0
   -5.2007    1.4909    0.0000 C   0  0  0  0  0  0  0  0  0  0  0  0
   -3.8990    0.7455    0.0000 C   0  0  0  0  0  0  0  0  0  0  0  0
   -3.8939   -0.7546    0.0000 C   0  0  0  0  0  0  0  0  0  0  0  0
   -5.1903   -1.5091    0.0000 C   0  0  0  0  0  0  0  0  0  0  0  0
   -7.7876   -1.5212    0.0000 C   0  0  0  0  0  0  0  0  0  0  0  0
   -7.7802   -3.0220    0.0000 C   0  0  0  0  0  0  0  0  0  0  0  0
   -9.0758   -3.7796    0.0000 C   0  0  0  0  0  0  0  0  0  0  0  0
   -9.0707   -5.2796    0.0000 C   0  0  0  0  0  0  0  0  0  0  0  0
  -10.3671   -6.0341    0.0000 C   0  0  0  0  0  0  0  0  0  0  0  0
  -11.6687   -5.2886    0.0000 C   0  0  0  0  0  0  0  0  0  0  0  0
  -11.6740   -3.7886    0.0000 C   0  0  0  0  0  0  0  0  0  0  0  0
  -10.3776   -3.0341    0.0000 N   0  0  0  0  0  0  0  0  0  0  0  0
  -12.7153   -3.1923    0.0000 C   0  0  0  0  0  0  0  0  0  0  0  0
  2  3  2  0
  2  4  2  0
  2  5  1  0
  1  2  1  0
  6  7  1  0
  7  8  2  0
  8  9  1  0
  9 10  2  0
 10 11  1  0
  6 11  2  0
 12 13  2  0
 14 15  1  0
 15 16  1  0
 16 17  1  0
 17 18  1  0
 18 19  1  0
 14 19  1  0
 20 21  1  0
 22 23  1  0
 23 24  2  0
 24 25  1  0
 25 26  2  0
 26 27  1  0
 22 27  2  0
 26 28  1  0
 21 22  1  0
 14 20  1  0
 12 17  1  0
  9 12  1  0
  5  6  1  0
M  END

> <chembl_id>
CHEMBL327980

> <chembl_pref_name>
None

$$$$

     RDKit          2D

 20 22  0  0  0  0  0  0  0  0999 V2000
    4.6417   -4.1250    0.0000 N   0  0  0  0  0  0  0  0  0  0  0  0
    5.2792   -3.8250    0.0000 C   0  0  0  0  0  0  0  0  0  0  0  0
    4.0125   -3.8167    0.0000 C   0  0  0  0  0  0  0  0  0  0  0  0
    5.4542   -3.1417    0.0000 C   0  0  0  0  0  0  0  0  0  0  0  0
    3.8542   -3.1292    0.0000 C   0  0  0  0  0  0  0  0  0  0  0  0
    5.0042   -2.5792    0.0000 C   0  0  0  0  0  0  0  0  0  0  0  0
    4.3000   -2.5792    0.0000 C   0  0  0  0  0  0  0  0  0  0  0  0
    4.6417   -4.8667    0.0000 C   0  0  0  0  0  0  0  0  0  0  0  0
    3.3917   -6.1917    0.0000 N   0  0  0  0  0  0  0  0  0  0  0  0
    4.0167   -5.1625    0.0000 C   0  0  0  0  0  0  0  0  0  0  0  0
    3.4792   -4.2917    0.0000 C   0  0  0  0  0  0  0  0  0  0  0  0
    5.7875   -4.3167    0.0000 C   0  0  0  0  0  0  0  0  0  0  0  0
    4.0167   -5.8417    0.0000 C   0  0  0  0  0  0  0  0  0  0  0  0
    3.1792   -2.9042    0.0000 C   0  0  0  0  0  0  0  0  0  0  0  0
    6.1500   -2.9417    0.0000 C   0  0  0  0  0  0  0  0  0  0  0  0
    3.3792   -6.8917    0.0000 C   0  0  0  0  0  0  0  0  0  0  0  0
    6.4792   -4.1292    0.0000 C   0  0  0  0  0  0  0  0  0  0  0  0
    2.8000   -4.0792    0.0000 C   0  0  0  0  0  0  0  0  0  0  0  0
    2.6500   -3.3792    0.0000 C   0  0  0  0  0  0  0  0  0  0  0  0
    6.6542   -3.4500    0.0000 C   0  0  0  0  0  0  0  0  0  0  0  0
  2  1  1  0
  3  1  1  0
  4  2  2  0
  5  3  2  0
  6  4  1  0
  7  5  1  0
  8  1  1  0
  9 13  1  0
 10  8  1  0
 11  3  1  0
 12  2  1  0
 13 10  1  0
 14  5  1  0
 15  4  1  0
 16  9  1  0
 17 12  2  0
 18 11  2  0
 19 18  1  0
 20 17  1  0
  7  6  1  0
 19 14  2  0
 20 15  2  0
M  END

> <chembl_id>
CHEMBL72

> <chembl_pref_name>
DESIPRAMINE

$$$$

     RDKit          2D

 22 25  0  0  1  0  0  0  0  0999 V2000
    3.1316   -3.0987    0.0000 O   0  0  0  0  0  0  0  0  0  0  0  0
    1.6382   -0.7829    0.0000 N   0  0  0  0  0  0  0  0  0  0  0  0
    5.2763   -1.8684    0.0000 N   0  0  0  0  0  0  0  0  0  0  0  0
    6.1710   -0.8750    0.0000 N   0  0  0  0  0  0  0  0  0  0  0  0
    2.4276   -1.8684    0.0000 C   0  0  0  0  0  0  0  0  0  0  0  0
    2.4276   -1.0460    0.0000 C   0  0  0  0  0  0  0  0  0  0  0  0
    1.6382   -2.1184    0.0000 C   0  0  0  0  0  0  0  0  0  0  0  0
    1.1513   -1.4539    0.0000 C   0  0  0  0  0  0  0  0  0  0  0  0
    3.1316   -2.2763    0.0000 C   0  0  0  0  0  0  0  0  0  0  0  0
    3.8487   -1.8684    0.0000 C   0  0  0  0  0  0  0  0  0  0  0  0
    3.1316   -0.6250    0.0000 C   0  0  0  0  0  0  0  0  0  0  0  0
    1.3026   -2.8750    0.0000 C   0  0  0  0  0  0  0  0  0  0  0  0
    3.8487   -1.0460    0.0000 C   0  0  0  0  0  0  0  0  0  0  0  0
    0.3289   -1.5395    0.0000 C   0  0  0  0  0  0  0  0  0  0  0  0
    4.5592   -2.2763    0.0000 C   0  0  0  0  0  0  0  0  0  0  0  0
    1.3816    0.0000    0.0000 C   0  0  0  0  0  0  0  0  0  0  0  0
    0.4802   -2.9605    0.0000 C   0  0  0  0  0  0  0  0  0  0  0  0
    0.0000   -2.2961    0.0000 C   0  0  0  0  0  0  0  0  0  0  0  0
    5.3684   -1.0460    0.0000 C   0  0  0  0  0  0  0  0  0  0  0  0
    6.0329   -2.1974    0.0000 C   0  0  0  0  0  0  0  0  0  0  0  0
    6.5789   -1.5921    0.0000 C   0  0  0  0  0  0  0  0  0  0  0  0
    4.7500   -0.4868    0.0000 C   0  0  0  0  0  0  0  0  0  0  0  0
  1  9  2  0
  2  6  1  0
  2  8  1  0
  2 16  1  0
  3 15  1  0
  3 19  1  0
  3 20  1  0
  4 19  2  0
  4 21  1  0
  5  6  2  0
  5  7  1  0
  5  9  1  0
  6 11  1  0
  7  8  2  0
  7 12  1  0
  8 14  1  0
  9 10  1  0
 10 13  1  0
 10 15  1  0
 11 13  1  0
 12 17  2  0
 14 18  2  0
 17 18  1  0
 19 22  1  0
 20 21  2  0
M  END

> <chembl_id>
CHEMBL46

> <chembl_pref_name>
ONDANSETRON

$$$$
